New "Load.IP_IP1044012_15070_M1" bus1="3807955038467923.1.4" phases=1 conn=Wye model=1 kv=0.219 kw = 0.2730700 pf=0.92 status=variable vmaxpu=1.5 vminpu=0.93 daily="IP-Tipo1_DO" 
New "Load.IP_IP1044012_15070_M2" bus1="3807955038467923.1.4" phases=1 conn=Wye model=2 kv=0.219 kw = 0.2730700 pf=0.92 status=variable vmaxpu=1.5 vminpu=0.93 daily="IP-Tipo1_DO"
 
New "Load.IP_IP1044014_15071_M1" bus1="3807942338467585.1.4" phases=1 conn=Wye model=1 kv=0.219 kw = 0.2730700 pf=0.92 status=variable vmaxpu=1.5 vminpu=0.93 daily="IP-Tipo1_DO" 
New "Load.IP_IP1044014_15071_M2" bus1="3807942338467585.1.4" phases=1 conn=Wye model=2 kv=0.219 kw = 0.2730700 pf=0.92 status=variable vmaxpu=1.5 vminpu=0.93 daily="IP-Tipo1_DO"
 
New "Load.IP_IP1044016_15072_M1" bus1="3807823838467199.1.4" phases=1 conn=Wye model=1 kv=0.219 kw = 0.2730700 pf=0.92 status=variable vmaxpu=1.5 vminpu=0.93 daily="IP-Tipo1_DO" 
New "Load.IP_IP1044016_15072_M2" bus1="3807823838467199.1.4" phases=1 conn=Wye model=2 kv=0.219 kw = 0.2730700 pf=0.92 status=variable vmaxpu=1.5 vminpu=0.93 daily="IP-Tipo1_DO"
 
New "Load.IP_IP1044019_15073_M1" bus1="3807922938466639.1.4" phases=1 conn=Wye model=1 kv=0.219 kw = 0.2730700 pf=0.92 status=variable vmaxpu=1.5 vminpu=0.93 daily="IP-Tipo1_DO" 
New "Load.IP_IP1044019_15073_M2" bus1="3807922938466639.1.4" phases=1 conn=Wye model=2 kv=0.219 kw = 0.2730700 pf=0.92 status=variable vmaxpu=1.5 vminpu=0.93 daily="IP-Tipo1_DO"
 
New "Load.IP_IP1044024_15074_M1" bus1="3807934938466318.1.4" phases=1 conn=Wye model=1 kv=0.219 kw = 0.2730700 pf=0.92 status=variable vmaxpu=1.5 vminpu=0.93 daily="IP-Tipo1_DO" 
New "Load.IP_IP1044024_15074_M2" bus1="3807934938466318.1.4" phases=1 conn=Wye model=2 kv=0.219 kw = 0.2730700 pf=0.92 status=variable vmaxpu=1.5 vminpu=0.93 daily="IP-Tipo1_DO"
 
New "Load.IP_IP1044028_15075_M1" bus1="3807960538466028.1.4" phases=1 conn=Wye model=1 kv=0.219 kw = 0.2730700 pf=0.92 status=variable vmaxpu=1.5 vminpu=0.93 daily="IP-Tipo1_DO" 
New "Load.IP_IP1044028_15075_M2" bus1="3807960538466028.1.4" phases=1 conn=Wye model=2 kv=0.219 kw = 0.2730700 pf=0.92 status=variable vmaxpu=1.5 vminpu=0.93 daily="IP-Tipo1_DO"
 
New "Load.IP_IP1044035_15076_M1" bus1="3807988938465423.1.4" phases=1 conn=Wye model=1 kv=0.219 kw = 0.2730700 pf=0.92 status=variable vmaxpu=1.5 vminpu=0.93 daily="IP-Tipo1_DO" 
New "Load.IP_IP1044035_15076_M2" bus1="3807988938465423.1.4" phases=1 conn=Wye model=2 kv=0.219 kw = 0.2730700 pf=0.92 status=variable vmaxpu=1.5 vminpu=0.93 daily="IP-Tipo1_DO"
 
New "Load.IP_IP1044036_15077_M1" bus1="3807972638465708.1.4" phases=1 conn=Wye model=1 kv=0.219 kw = 0.2730700 pf=0.92 status=variable vmaxpu=1.5 vminpu=0.93 daily="IP-Tipo1_DO" 
New "Load.IP_IP1044036_15077_M2" bus1="3807972638465708.1.4" phases=1 conn=Wye model=2 kv=0.219 kw = 0.2730700 pf=0.92 status=variable vmaxpu=1.5 vminpu=0.93 daily="IP-Tipo1_DO"
 
New "Load.IP_IP1044095_15091_M1" bus1="3808351738463535.1.4" phases=1 conn=Wye model=1 kv=0.219 kw = 0.2730700 pf=0.92 status=variable vmaxpu=1.5 vminpu=0.93 daily="IP-Tipo1_DO" 
New "Load.IP_IP1044095_15091_M2" bus1="3808351738463535.1.4" phases=1 conn=Wye model=2 kv=0.219 kw = 0.2730700 pf=0.92 status=variable vmaxpu=1.5 vminpu=0.93 daily="IP-Tipo1_DO"
 
New "Load.IP_IP1044112_15092_M1" bus1="3807937338462556.1.4" phases=1 conn=Wye model=1 kv=0.219 kw = 0.2730700 pf=0.92 status=variable vmaxpu=1.5 vminpu=0.93 daily="IP-Tipo1_DO" 
New "Load.IP_IP1044112_15092_M2" bus1="3807937338462556.1.4" phases=1 conn=Wye model=2 kv=0.219 kw = 0.2730700 pf=0.92 status=variable vmaxpu=1.5 vminpu=0.93 daily="IP-Tipo1_DO"
 
New "Load.IP_IP1044113_15093_M1" bus1="3807854138461907.2.4" phases=1 conn=Wye model=1 kv=0.219 kw = 0.2730700 pf=0.92 status=variable vmaxpu=1.5 vminpu=0.93 daily="IP-Tipo1_DO" 
New "Load.IP_IP1044113_15093_M2" bus1="3807854138461907.2.4" phases=1 conn=Wye model=2 kv=0.219 kw = 0.2730700 pf=0.92 status=variable vmaxpu=1.5 vminpu=0.93 daily="IP-Tipo1_DO"
 
New "Load.IP_IP1044126_15094_M1" bus1="3807892038460457.1.4" phases=1 conn=Wye model=1 kv=0.219 kw = 0.2730700 pf=0.92 status=variable vmaxpu=1.5 vminpu=0.93 daily="IP-Tipo1_DO" 
New "Load.IP_IP1044126_15094_M2" bus1="3807892038460457.1.4" phases=1 conn=Wye model=2 kv=0.219 kw = 0.2730700 pf=0.92 status=variable vmaxpu=1.5 vminpu=0.93 daily="IP-Tipo1_DO"
 
New "Load.IP_IP1044136_15095_M1" bus1="3806488238455631.1.4" phases=1 conn=Wye model=1 kv=0.219 kw = 0.2730700 pf=0.92 status=variable vmaxpu=1.5 vminpu=0.93 daily="IP-Tipo1_DO" 
New "Load.IP_IP1044136_15095_M2" bus1="3806488238455631.1.4" phases=1 conn=Wye model=2 kv=0.219 kw = 0.2730700 pf=0.92 status=variable vmaxpu=1.5 vminpu=0.93 daily="IP-Tipo1_DO"
 
New "Load.IP_IP1044137_15096_M1" bus1="3806580438454998.1.4" phases=1 conn=Wye model=1 kv=0.219 kw = 0.2730700 pf=0.92 status=variable vmaxpu=1.5 vminpu=0.93 daily="IP-Tipo1_DO" 
New "Load.IP_IP1044137_15096_M2" bus1="3806580438454998.1.4" phases=1 conn=Wye model=2 kv=0.219 kw = 0.2730700 pf=0.92 status=variable vmaxpu=1.5 vminpu=0.93 daily="IP-Tipo1_DO"
 
New "Load.IP_IP1044144_15097_M1" bus1="3806174238453800.2.4" phases=1 conn=Wye model=1 kv=0.219 kw = 0.2730700 pf=0.92 status=variable vmaxpu=1.5 vminpu=0.93 daily="IP-Tipo1_DO" 
New "Load.IP_IP1044144_15097_M2" bus1="3806174238453800.2.4" phases=1 conn=Wye model=2 kv=0.219 kw = 0.2730700 pf=0.92 status=variable vmaxpu=1.5 vminpu=0.93 daily="IP-Tipo1_DO"
 
New "Load.IP_IP1044148_15098_M1" bus1="3806091938453324.1.4" phases=1 conn=Wye model=1 kv=0.219 kw = 0.2730700 pf=0.92 status=variable vmaxpu=1.5 vminpu=0.93 daily="IP-Tipo1_DO" 
New "Load.IP_IP1044148_15098_M2" bus1="3806091938453324.1.4" phases=1 conn=Wye model=2 kv=0.219 kw = 0.2730700 pf=0.92 status=variable vmaxpu=1.5 vminpu=0.93 daily="IP-Tipo1_DO"
 
New "Load.IP_IP1044151_15099_M1" bus1="3806031238452995.1.4" phases=1 conn=Wye model=1 kv=0.219 kw = 0.2730700 pf=0.92 status=variable vmaxpu=1.5 vminpu=0.93 daily="IP-Tipo1_DO" 
New "Load.IP_IP1044151_15099_M2" bus1="3806031238452995.1.4" phases=1 conn=Wye model=2 kv=0.219 kw = 0.2730700 pf=0.92 status=variable vmaxpu=1.5 vminpu=0.93 daily="IP-Tipo1_DO"
 
New "Load.IP_IP1044157_15100_M1" bus1="3805968438452587.1.4" phases=1 conn=Wye model=1 kv=0.219 kw = 0.2730700 pf=0.92 status=variable vmaxpu=1.5 vminpu=0.93 daily="IP-Tipo1_DO" 
New "Load.IP_IP1044157_15100_M2" bus1="3805968438452587.1.4" phases=1 conn=Wye model=2 kv=0.219 kw = 0.2730700 pf=0.92 status=variable vmaxpu=1.5 vminpu=0.93 daily="IP-Tipo1_DO"
 
New "Load.IP_IP1044162_15101_M1" bus1="3805905438452196.1.4" phases=1 conn=Wye model=1 kv=0.219 kw = 0.2730700 pf=0.92 status=variable vmaxpu=1.5 vminpu=0.93 daily="IP-Tipo1_DO" 
New "Load.IP_IP1044162_15101_M2" bus1="3805905438452196.1.4" phases=1 conn=Wye model=2 kv=0.219 kw = 0.2730700 pf=0.92 status=variable vmaxpu=1.5 vminpu=0.93 daily="IP-Tipo1_DO"
 
New "Load.IP_IP1044169_15102_M1" bus1="3806572038455976.1.4" phases=1 conn=Wye model=1 kv=0.219 kw = 0.2730700 pf=0.92 status=variable vmaxpu=1.5 vminpu=0.93 daily="IP-Tipo1_DO" 
New "Load.IP_IP1044169_15102_M2" bus1="3806572038455976.1.4" phases=1 conn=Wye model=2 kv=0.219 kw = 0.2730700 pf=0.92 status=variable vmaxpu=1.5 vminpu=0.93 daily="IP-Tipo1_DO"
 
New "Load.IP_IP1044178_15103_M1" bus1="3806761738456861.2.4" phases=1 conn=Wye model=1 kv=0.219 kw = 0.2730700 pf=0.92 status=variable vmaxpu=1.5 vminpu=0.93 daily="IP-Tipo1_DO" 
New "Load.IP_IP1044178_15103_M2" bus1="3806761738456861.2.4" phases=1 conn=Wye model=2 kv=0.219 kw = 0.2730700 pf=0.92 status=variable vmaxpu=1.5 vminpu=0.93 daily="IP-Tipo1_DO"
 
New "Load.IP_IP1044182_15104_M1" bus1="3806923838457620.1.4" phases=1 conn=Wye model=1 kv=0.219 kw = 0.2730700 pf=0.92 status=variable vmaxpu=1.5 vminpu=0.93 daily="IP-Tipo1_DO" 
New "Load.IP_IP1044182_15104_M2" bus1="3806923838457620.1.4" phases=1 conn=Wye model=2 kv=0.219 kw = 0.2730700 pf=0.92 status=variable vmaxpu=1.5 vminpu=0.93 daily="IP-Tipo1_DO"
 
New "Load.IP_IP1044184_15105_M1" bus1="3807362738457880.1.4" phases=1 conn=Wye model=1 kv=0.219 kw = 0.2730700 pf=0.92 status=variable vmaxpu=1.5 vminpu=0.93 daily="IP-Tipo1_DO" 
New "Load.IP_IP1044184_15105_M2" bus1="3807362738457880.1.4" phases=1 conn=Wye model=2 kv=0.219 kw = 0.2730700 pf=0.92 status=variable vmaxpu=1.5 vminpu=0.93 daily="IP-Tipo1_DO"
 
New "Load.IP_IP1044186_15106_M1" bus1="3807075538458403.1.4" phases=1 conn=Wye model=1 kv=0.219 kw = 0.2730700 pf=0.92 status=variable vmaxpu=1.5 vminpu=0.93 daily="IP-Tipo1_DO" 
New "Load.IP_IP1044186_15106_M2" bus1="3807075538458403.1.4" phases=1 conn=Wye model=2 kv=0.219 kw = 0.2730700 pf=0.92 status=variable vmaxpu=1.5 vminpu=0.93 daily="IP-Tipo1_DO"
 
New "Load.IP_IP1044187_15107_M1" bus1="3807233438459065.1.4" phases=1 conn=Wye model=1 kv=0.219 kw = 0.2730700 pf=0.92 status=variable vmaxpu=1.5 vminpu=0.93 daily="IP-Tipo1_DO" 
New "Load.IP_IP1044187_15107_M2" bus1="3807233438459065.1.4" phases=1 conn=Wye model=2 kv=0.219 kw = 0.2730700 pf=0.92 status=variable vmaxpu=1.5 vminpu=0.93 daily="IP-Tipo1_DO"
 
New "Load.IP_IP1044196_15108_M1" bus1="3807288838459308.1.4" phases=1 conn=Wye model=1 kv=0.219 kw = 0.2730700 pf=0.92 status=variable vmaxpu=1.5 vminpu=0.93 daily="IP-Tipo1_DO" 
New "Load.IP_IP1044196_15108_M2" bus1="3807288838459308.1.4" phases=1 conn=Wye model=2 kv=0.219 kw = 0.2730700 pf=0.92 status=variable vmaxpu=1.5 vminpu=0.93 daily="IP-Tipo1_DO"
 
New "Load.IP_IP1044197_15109_M1" bus1="3807558038458997.2.4" phases=1 conn=Wye model=1 kv=0.219 kw = 0.2730700 pf=0.92 status=variable vmaxpu=1.5 vminpu=0.93 daily="IP-Tipo1_DO" 
New "Load.IP_IP1044197_15109_M2" bus1="3807558038458997.2.4" phases=1 conn=Wye model=2 kv=0.219 kw = 0.2730700 pf=0.92 status=variable vmaxpu=1.5 vminpu=0.93 daily="IP-Tipo1_DO"
 
New "Load.IP_IP1044199_15110_M1" bus1="3807694638459776.2.4" phases=1 conn=Wye model=1 kv=0.219 kw = 0.2730700 pf=0.92 status=variable vmaxpu=1.5 vminpu=0.93 daily="IP-Tipo1_DO" 
New "Load.IP_IP1044199_15110_M2" bus1="3807694638459776.2.4" phases=1 conn=Wye model=2 kv=0.219 kw = 0.2730700 pf=0.92 status=variable vmaxpu=1.5 vminpu=0.93 daily="IP-Tipo1_DO"
 
New "Load.IP_IP1044543_15167_M1" bus1="3807731338471235.2.4" phases=1 conn=Wye model=1 kv=0.219 kw = 0.2730700 pf=0.92 status=variable vmaxpu=1.5 vminpu=0.93 daily="IP-Tipo1_DO" 
New "Load.IP_IP1044543_15167_M2" bus1="3807731338471235.2.4" phases=1 conn=Wye model=2 kv=0.219 kw = 0.2730700 pf=0.92 status=variable vmaxpu=1.5 vminpu=0.93 daily="IP-Tipo1_DO"
 
New "Load.IP_IP1044544_15168_M1" bus1="3808401538471181.1.4" phases=1 conn=Wye model=1 kv=0.219 kw = 0.2730700 pf=0.92 status=variable vmaxpu=1.5 vminpu=0.93 daily="IP-Tipo1_DO" 
New "Load.IP_IP1044544_15168_M2" bus1="3808401538471181.1.4" phases=1 conn=Wye model=2 kv=0.219 kw = 0.2730700 pf=0.92 status=variable vmaxpu=1.5 vminpu=0.93 daily="IP-Tipo1_DO"
 
New "Load.IP_IP1044547_15169_M1" bus1="3808128038470421.1.4" phases=1 conn=Wye model=1 kv=0.219 kw = 0.2730700 pf=0.92 status=variable vmaxpu=1.5 vminpu=0.93 daily="IP-Tipo1_DO" 
New "Load.IP_IP1044547_15169_M2" bus1="3808128038470421.1.4" phases=1 conn=Wye model=2 kv=0.219 kw = 0.2730700 pf=0.92 status=variable vmaxpu=1.5 vminpu=0.93 daily="IP-Tipo1_DO"
 
New "Load.IP_IP1044552_15170_M1" bus1="3808101938469561.1.4" phases=1 conn=Wye model=1 kv=0.219 kw = 0.2730700 pf=0.92 status=variable vmaxpu=1.5 vminpu=0.93 daily="IP-Tipo1_DO" 
New "Load.IP_IP1044552_15170_M2" bus1="3808101938469561.1.4" phases=1 conn=Wye model=2 kv=0.219 kw = 0.2730700 pf=0.92 status=variable vmaxpu=1.5 vminpu=0.93 daily="IP-Tipo1_DO"
 
New "Load.IP_IP1044557_15171_M1" bus1="3808477738469508.1.4" phases=1 conn=Wye model=1 kv=0.219 kw = 0.2730700 pf=0.92 status=variable vmaxpu=1.5 vminpu=0.93 daily="IP-Tipo1_DO" 
New "Load.IP_IP1044557_15171_M2" bus1="3808477738469508.1.4" phases=1 conn=Wye model=2 kv=0.219 kw = 0.2730700 pf=0.92 status=variable vmaxpu=1.5 vminpu=0.93 daily="IP-Tipo1_DO"
 
New "Load.IP_IP1044560_15172_M1" bus1="3808741938468544.2.4" phases=1 conn=Wye model=1 kv=0.219 kw = 0.2730700 pf=0.92 status=variable vmaxpu=1.5 vminpu=0.93 daily="IP-Tipo1_DO" 
New "Load.IP_IP1044560_15172_M2" bus1="3808741938468544.2.4" phases=1 conn=Wye model=2 kv=0.219 kw = 0.2730700 pf=0.92 status=variable vmaxpu=1.5 vminpu=0.93 daily="IP-Tipo1_DO"
 
New "Load.IP_IP1044631_15189_M1" bus1="3791778638472605.1.4" phases=1 conn=Wye model=1 kv=0.219 kw = 0.2617533 pf=0.92 status=variable vmaxpu=1.5 vminpu=0.93 daily="IP-Tipo1_DO" 
New "Load.IP_IP1044631_15189_M2" bus1="3791778638472605.1.4" phases=1 conn=Wye model=2 kv=0.219 kw = 0.2617533 pf=0.92 status=variable vmaxpu=1.5 vminpu=0.93 daily="IP-Tipo1_DO"
 
New "Load.IP_IP1044690_15211_M1" bus1="3791630438470781.1.4" phases=1 conn=Wye model=1 kv=0.219 kw = 0.2617533 pf=0.92 status=variable vmaxpu=1.5 vminpu=0.93 daily="IP-Tipo1_DO" 
New "Load.IP_IP1044690_15211_M2" bus1="3791630438470781.1.4" phases=1 conn=Wye model=2 kv=0.219 kw = 0.2617533 pf=0.92 status=variable vmaxpu=1.5 vminpu=0.93 daily="IP-Tipo1_DO"
 
New "Load.IP_IP1044694_15212_M1" bus1="3792128838470191.1.4" phases=1 conn=Wye model=1 kv=0.219 kw = 0.2560781 pf=0.92 status=variable vmaxpu=1.5 vminpu=0.93 daily="IP-Tipo1_DO" 
New "Load.IP_IP1044694_15212_M2" bus1="3792128838470191.1.4" phases=1 conn=Wye model=2 kv=0.219 kw = 0.2560781 pf=0.92 status=variable vmaxpu=1.5 vminpu=0.93 daily="IP-Tipo1_DO"
 
New "Load.IP_IP1046384_15857_M1" bus1="3793895238472928.1.4" phases=1 conn=Wye model=1 kv=0.219 kw = 0.2617533 pf=0.92 status=variable vmaxpu=1.5 vminpu=0.93 daily="IP-Tipo1_DO" 
New "Load.IP_IP1046384_15857_M2" bus1="3793895238472928.1.4" phases=1 conn=Wye model=2 kv=0.219 kw = 0.2617533 pf=0.92 status=variable vmaxpu=1.5 vminpu=0.93 daily="IP-Tipo1_DO"
 
New "Load.IP_IP1046387_15859_M1" bus1="3793865538472556.1.4" phases=1 conn=Wye model=1 kv=0.219 kw = 0.2617533 pf=0.92 status=variable vmaxpu=1.5 vminpu=0.93 daily="IP-Tipo1_DO" 
New "Load.IP_IP1046387_15859_M2" bus1="3793865538472556.1.4" phases=1 conn=Wye model=2 kv=0.219 kw = 0.2617533 pf=0.92 status=variable vmaxpu=1.5 vminpu=0.93 daily="IP-Tipo1_DO"
 
New "Load.IP_IP1046390_15860_M1" bus1="3794214538472408.1.4" phases=1 conn=Wye model=1 kv=0.219 kw = 0.2730700 pf=0.92 status=variable vmaxpu=1.5 vminpu=0.93 daily="IP-Tipo1_DO" 
New "Load.IP_IP1046390_15860_M2" bus1="3794214538472408.1.4" phases=1 conn=Wye model=2 kv=0.219 kw = 0.2730700 pf=0.92 status=variable vmaxpu=1.5 vminpu=0.93 daily="IP-Tipo1_DO"
 
New "Load.IP_IP1046391_15861_M1" bus1="3795001738471996.1.4" phases=1 conn=Wye model=1 kv=0.219 kw = 0.2730700 pf=0.92 status=variable vmaxpu=1.5 vminpu=0.93 daily="IP-Tipo1_DO" 
New "Load.IP_IP1046391_15861_M2" bus1="3795001738471996.1.4" phases=1 conn=Wye model=2 kv=0.219 kw = 0.2730700 pf=0.92 status=variable vmaxpu=1.5 vminpu=0.93 daily="IP-Tipo1_DO"
 
New "Load.IP_IP1046393_15862_M1" bus1="297565110TR.1.4" phases=1 conn=Wye model=1 kv=0.219 kw = 0.2730700 pf=0.92 status=variable vmaxpu=1.5 vminpu=0.93 daily="IP-Tipo1_DO" 
New "Load.IP_IP1046393_15862_M2" bus1="297565110TR.1.4" phases=1 conn=Wye model=2 kv=0.219 kw = 0.2730700 pf=0.92 status=variable vmaxpu=1.5 vminpu=0.93 daily="IP-Tipo1_DO"
 
New "Load.IP_IP1046394_15863_M1" bus1="297565110TR.1.4" phases=1 conn=Wye model=1 kv=0.219 kw = 0.2730700 pf=0.92 status=variable vmaxpu=1.5 vminpu=0.93 daily="IP-Tipo1_DO" 
New "Load.IP_IP1046394_15863_M2" bus1="297565110TR.1.4" phases=1 conn=Wye model=2 kv=0.219 kw = 0.2730700 pf=0.92 status=variable vmaxpu=1.5 vminpu=0.93 daily="IP-Tipo1_DO"
 
New "Load.IP_IP1046398_15864_M1" bus1="3792854838472513.1.4" phases=1 conn=Wye model=1 kv=0.219 kw = 0.2617533 pf=0.92 status=variable vmaxpu=1.5 vminpu=0.93 daily="IP-Tipo1_DO" 
New "Load.IP_IP1046398_15864_M2" bus1="3792854838472513.1.4" phases=1 conn=Wye model=2 kv=0.219 kw = 0.2617533 pf=0.92 status=variable vmaxpu=1.5 vminpu=0.93 daily="IP-Tipo1_DO"
 
New "Load.IP_IP1046401_15865_M1" bus1="3792960838471738.1.4" phases=1 conn=Wye model=1 kv=0.219 kw = 0.2560781 pf=0.92 status=variable vmaxpu=1.5 vminpu=0.93 daily="IP-Tipo1_DO" 
New "Load.IP_IP1046401_15865_M2" bus1="3792960838471738.1.4" phases=1 conn=Wye model=2 kv=0.219 kw = 0.2560781 pf=0.92 status=variable vmaxpu=1.5 vminpu=0.93 daily="IP-Tipo1_DO"
 
New "Load.IP_IP1046402_15866_M1" bus1="3792421638471496.1.4" phases=1 conn=Wye model=1 kv=0.219 kw = 0.2560781 pf=0.92 status=variable vmaxpu=1.5 vminpu=0.93 daily="IP-Tipo1_DO" 
New "Load.IP_IP1046402_15866_M2" bus1="3792421638471496.1.4" phases=1 conn=Wye model=2 kv=0.219 kw = 0.2560781 pf=0.92 status=variable vmaxpu=1.5 vminpu=0.93 daily="IP-Tipo1_DO"
 
New "Load.IP_IP1046403_15867_M1" bus1="3792397238471091.1.4" phases=1 conn=Wye model=1 kv=0.219 kw = 0.2617533 pf=0.92 status=variable vmaxpu=1.5 vminpu=0.93 daily="IP-Tipo1_DO" 
New "Load.IP_IP1046403_15867_M2" bus1="3792397238471091.1.4" phases=1 conn=Wye model=2 kv=0.219 kw = 0.2617533 pf=0.92 status=variable vmaxpu=1.5 vminpu=0.93 daily="IP-Tipo1_DO"
 
New "Load.IP_IP1046406_15868_M1" bus1="3792360738470716.1.4" phases=1 conn=Wye model=1 kv=0.219 kw = 0.2617533 pf=0.92 status=variable vmaxpu=1.5 vminpu=0.93 daily="IP-Tipo1_DO" 
New "Load.IP_IP1046406_15868_M2" bus1="3792360738470716.1.4" phases=1 conn=Wye model=2 kv=0.219 kw = 0.2617533 pf=0.92 status=variable vmaxpu=1.5 vminpu=0.93 daily="IP-Tipo1_DO"
 
New "Load.IP_IP1046407_15869_M1" bus1="3791888038470482.1.4" phases=1 conn=Wye model=1 kv=0.219 kw = 0.2617533 pf=0.92 status=variable vmaxpu=1.5 vminpu=0.93 daily="IP-Tipo1_DO" 
New "Load.IP_IP1046407_15869_M2" bus1="3791888038470482.1.4" phases=1 conn=Wye model=2 kv=0.219 kw = 0.2617533 pf=0.92 status=variable vmaxpu=1.5 vminpu=0.93 daily="IP-Tipo1_DO"
 
New "Load.IP_IP1046415_15871_M1" bus1="3792072938471806.1.4" phases=1 conn=Wye model=1 kv=0.219 kw = 0.2730700 pf=0.92 status=variable vmaxpu=1.5 vminpu=0.93 daily="IP-Tipo1_DO" 
New "Load.IP_IP1046415_15871_M2" bus1="3792072938471806.1.4" phases=1 conn=Wye model=2 kv=0.219 kw = 0.2730700 pf=0.92 status=variable vmaxpu=1.5 vminpu=0.93 daily="IP-Tipo1_DO"
 
New "Load.IP_IP1049263_16941_M1" bus1="3806409238471820.1.4" phases=1 conn=Wye model=1 kv=0.219 kw = 0.2617533 pf=0.92 status=variable vmaxpu=1.5 vminpu=0.93 daily="IP-Tipo1_DO" 
New "Load.IP_IP1049263_16941_M2" bus1="3806409238471820.1.4" phases=1 conn=Wye model=2 kv=0.219 kw = 0.2617533 pf=0.92 status=variable vmaxpu=1.5 vminpu=0.93 daily="IP-Tipo1_DO"
 
New "Load.IP_IP1049265_16942_M1" bus1="3806744638471321.2.4" phases=1 conn=Wye model=1 kv=0.219 kw = 0.2617533 pf=0.92 status=variable vmaxpu=1.5 vminpu=0.93 daily="IP-Tipo1_DO" 
New "Load.IP_IP1049265_16942_M2" bus1="3806744638471321.2.4" phases=1 conn=Wye model=2 kv=0.219 kw = 0.2617533 pf=0.92 status=variable vmaxpu=1.5 vminpu=0.93 daily="IP-Tipo1_DO"
 
New "Load.IP_IP1049272_16945_M1" bus1="3807767438470542.1.4" phases=1 conn=Wye model=1 kv=0.219 kw = 0.2730700 pf=0.92 status=variable vmaxpu=1.5 vminpu=0.93 daily="IP-Tipo1_DO" 
New "Load.IP_IP1049272_16945_M2" bus1="3807767438470542.1.4" phases=1 conn=Wye model=2 kv=0.219 kw = 0.2730700 pf=0.92 status=variable vmaxpu=1.5 vminpu=0.93 daily="IP-Tipo1_DO"
 
New "Load.IP_IP1049273_16946_M1" bus1="3806730538470561.2.4" phases=1 conn=Wye model=1 kv=0.219 kw = 0.2730700 pf=0.92 status=variable vmaxpu=1.5 vminpu=0.93 daily="IP-Tipo1_DO" 
New "Load.IP_IP1049273_16946_M2" bus1="3806730538470561.2.4" phases=1 conn=Wye model=2 kv=0.219 kw = 0.2730700 pf=0.92 status=variable vmaxpu=1.5 vminpu=0.93 daily="IP-Tipo1_DO"
 
New "Load.IP_IP1049276_16947_M1" bus1="3806195138470582.2.4" phases=1 conn=Wye model=1 kv=0.219 kw = 0.2730700 pf=0.92 status=variable vmaxpu=1.5 vminpu=0.93 daily="IP-Tipo1_DO" 
New "Load.IP_IP1049276_16947_M2" bus1="3806195138470582.2.4" phases=1 conn=Wye model=2 kv=0.219 kw = 0.2730700 pf=0.92 status=variable vmaxpu=1.5 vminpu=0.93 daily="IP-Tipo1_DO"
 
New "Load.IP_IP1049277_16948_M1" bus1="3806075538471355.1.4" phases=1 conn=Wye model=1 kv=0.219 kw = 0.2730700 pf=0.92 status=variable vmaxpu=1.5 vminpu=0.93 daily="IP-Tipo1_DO" 
New "Load.IP_IP1049277_16948_M2" bus1="3806075538471355.1.4" phases=1 conn=Wye model=2 kv=0.219 kw = 0.2730700 pf=0.92 status=variable vmaxpu=1.5 vminpu=0.93 daily="IP-Tipo1_DO"
 
New "Load.IP_IP1049280_16949_M1" bus1="3806444238471341.2.4" phases=1 conn=Wye model=1 kv=0.219 kw = 0.2674123 pf=0.92 status=variable vmaxpu=1.5 vminpu=0.93 daily="IP-Tipo1_DO" 
New "Load.IP_IP1049280_16949_M2" bus1="3806444238471341.2.4" phases=1 conn=Wye model=2 kv=0.219 kw = 0.2674123 pf=0.92 status=variable vmaxpu=1.5 vminpu=0.93 daily="IP-Tipo1_DO"
 
New "Load.IP_IP1049281_16950_M1" bus1="3806330938470374.2.4" phases=1 conn=Wye model=1 kv=0.219 kw = 0.2560781 pf=0.92 status=variable vmaxpu=1.5 vminpu=0.93 daily="IP-Tipo1_DO" 
New "Load.IP_IP1049281_16950_M2" bus1="3806330938470374.2.4" phases=1 conn=Wye model=2 kv=0.219 kw = 0.2560781 pf=0.92 status=variable vmaxpu=1.5 vminpu=0.93 daily="IP-Tipo1_DO"
 
New "Load.IP_IP1049283_16951_M1" bus1="3807966138468805.1.4" phases=1 conn=Wye model=1 kv=0.219 kw = 0.2617533 pf=0.92 status=variable vmaxpu=1.5 vminpu=0.93 daily="IP-Tipo1_DO" 
New "Load.IP_IP1049283_16951_M2" bus1="3807966138468805.1.4" phases=1 conn=Wye model=2 kv=0.219 kw = 0.2617533 pf=0.92 status=variable vmaxpu=1.5 vminpu=0.93 daily="IP-Tipo1_DO"
 
New "Load.IP_IP1049284_16952_M1" bus1="3807497238468330.2.4" phases=1 conn=Wye model=1 kv=0.219 kw = 0.2617533 pf=0.92 status=variable vmaxpu=1.5 vminpu=0.93 daily="IP-Tipo1_DO" 
New "Load.IP_IP1049284_16952_M2" bus1="3807497238468330.2.4" phases=1 conn=Wye model=2 kv=0.219 kw = 0.2617533 pf=0.92 status=variable vmaxpu=1.5 vminpu=0.93 daily="IP-Tipo1_DO"
 
New "Load.IP_IP1049286_16953_M1" bus1="3807147138468250.2.4" phases=1 conn=Wye model=1 kv=0.219 kw = 0.2617533 pf=0.92 status=variable vmaxpu=1.5 vminpu=0.93 daily="IP-Tipo1_DO" 
New "Load.IP_IP1049286_16953_M2" bus1="3807147138468250.2.4" phases=1 conn=Wye model=2 kv=0.219 kw = 0.2617533 pf=0.92 status=variable vmaxpu=1.5 vminpu=0.93 daily="IP-Tipo1_DO"
 
New "Load.IP_IP1049287_16954_M1" bus1="3806763038468162.2.4" phases=1 conn=Wye model=1 kv=0.219 kw = 0.2617533 pf=0.92 status=variable vmaxpu=1.5 vminpu=0.93 daily="IP-Tipo1_DO" 
New "Load.IP_IP1049287_16954_M2" bus1="3806763038468162.2.4" phases=1 conn=Wye model=2 kv=0.219 kw = 0.2617533 pf=0.92 status=variable vmaxpu=1.5 vminpu=0.93 daily="IP-Tipo1_DO"
 
New "Load.IP_IP1049294_16955_M1" bus1="3806398838468065.1.4" phases=1 conn=Wye model=1 kv=0.219 kw = 0.2617533 pf=0.92 status=variable vmaxpu=1.5 vminpu=0.93 daily="IP-Tipo1_DO" 
New "Load.IP_IP1049294_16955_M2" bus1="3806398838468065.1.4" phases=1 conn=Wye model=2 kv=0.219 kw = 0.2617533 pf=0.92 status=variable vmaxpu=1.5 vminpu=0.93 daily="IP-Tipo1_DO"
 
New "Load.IP_IP1049295_16956_M1" bus1="3806085438467986.1.4" phases=1 conn=Wye model=1 kv=0.219 kw = 0.2617533 pf=0.92 status=variable vmaxpu=1.5 vminpu=0.93 daily="IP-Tipo1_DO" 
New "Load.IP_IP1049295_16956_M2" bus1="3806085438467986.1.4" phases=1 conn=Wye model=2 kv=0.219 kw = 0.2617533 pf=0.92 status=variable vmaxpu=1.5 vminpu=0.93 daily="IP-Tipo1_DO"
 
New "Load.IP_IP1049296_16957_M1" bus1="3807963538468257.1.4" phases=1 conn=Wye model=1 kv=0.219 kw = 0.2560781 pf=0.92 status=variable vmaxpu=1.5 vminpu=0.93 daily="IP-Tipo1_DO" 
New "Load.IP_IP1049296_16957_M2" bus1="3807963538468257.1.4" phases=1 conn=Wye model=2 kv=0.219 kw = 0.2560781 pf=0.92 status=variable vmaxpu=1.5 vminpu=0.93 daily="IP-Tipo1_DO"
 
New "Load.IP_IP1049297_16958_M1" bus1="3807867638468325.1.4" phases=1 conn=Wye model=1 kv=0.219 kw = 0.2560781 pf=0.92 status=variable vmaxpu=1.5 vminpu=0.93 daily="IP-Tipo1_DO" 
New "Load.IP_IP1049297_16958_M2" bus1="3807867638468325.1.4" phases=1 conn=Wye model=2 kv=0.219 kw = 0.2560781 pf=0.92 status=variable vmaxpu=1.5 vminpu=0.93 daily="IP-Tipo1_DO"
 
New "Load.IP_IP1049299_16959_M1" bus1="3808238438461774.1.4" phases=1 conn=Wye model=1 kv=0.219 kw = 0.2674123 pf=0.92 status=variable vmaxpu=1.5 vminpu=0.93 daily="IP-Tipo1_DO" 
New "Load.IP_IP1049299_16959_M2" bus1="3808238438461774.1.4" phases=1 conn=Wye model=2 kv=0.219 kw = 0.2674123 pf=0.92 status=variable vmaxpu=1.5 vminpu=0.93 daily="IP-Tipo1_DO"
 
New "Load.IP_IP1049300_16960_M1" bus1="3808780538461928.1.4" phases=1 conn=Wye model=1 kv=0.219 kw = 0.2674123 pf=0.92 status=variable vmaxpu=1.5 vminpu=0.93 daily="IP-Tipo1_DO" 
New "Load.IP_IP1049300_16960_M2" bus1="3808780538461928.1.4" phases=1 conn=Wye model=2 kv=0.219 kw = 0.2674123 pf=0.92 status=variable vmaxpu=1.5 vminpu=0.93 daily="IP-Tipo1_DO"
 
New "Load.IP_IP1049301_16961_M1" bus1="3808968638461988.1.4" phases=1 conn=Wye model=1 kv=0.219 kw = 0.2674123 pf=0.92 status=variable vmaxpu=1.5 vminpu=0.93 daily="IP-Tipo1_DO" 
New "Load.IP_IP1049301_16961_M2" bus1="3808968638461988.1.4" phases=1 conn=Wye model=2 kv=0.219 kw = 0.2674123 pf=0.92 status=variable vmaxpu=1.5 vminpu=0.93 daily="IP-Tipo1_DO"
 
New "Load.IP_IP1049307_16962_M1" bus1="3807872538462209.1.4" phases=1 conn=Wye model=1 kv=0.219 kw = 0.2617533 pf=0.92 status=variable vmaxpu=1.5 vminpu=0.93 daily="IP-Tipo1_DO" 
New "Load.IP_IP1049307_16962_M2" bus1="3807872538462209.1.4" phases=1 conn=Wye model=2 kv=0.219 kw = 0.2617533 pf=0.92 status=variable vmaxpu=1.5 vminpu=0.93 daily="IP-Tipo1_DO"
 
New "Load.IP_IP1049311_16964_M1" bus1="3806355238462715.1.4" phases=1 conn=Wye model=1 kv=0.219 kw = 0.2617533 pf=0.92 status=variable vmaxpu=1.5 vminpu=0.93 daily="IP-Tipo1_DO" 
New "Load.IP_IP1049311_16964_M2" bus1="3806355238462715.1.4" phases=1 conn=Wye model=2 kv=0.219 kw = 0.2617533 pf=0.92 status=variable vmaxpu=1.5 vminpu=0.93 daily="IP-Tipo1_DO"
 
New "Load.IP_IP1049314_16965_M1" bus1="3805243938462787.1.4" phases=1 conn=Wye model=1 kv=0.219 kw = 0.2617533 pf=0.92 status=variable vmaxpu=1.5 vminpu=0.93 daily="IP-Tipo1_DO" 
New "Load.IP_IP1049314_16965_M2" bus1="3805243938462787.1.4" phases=1 conn=Wye model=2 kv=0.219 kw = 0.2617533 pf=0.92 status=variable vmaxpu=1.5 vminpu=0.93 daily="IP-Tipo1_DO"
 
New "Load.IP_IP1049326_16967_M1" bus1="3805583938462770.1.4" phases=1 conn=Wye model=1 kv=0.219 kw = 0.2617533 pf=0.92 status=variable vmaxpu=1.5 vminpu=0.93 daily="IP-Tipo1_DO" 
New "Load.IP_IP1049326_16967_M2" bus1="3805583938462770.1.4" phases=1 conn=Wye model=2 kv=0.219 kw = 0.2617533 pf=0.92 status=variable vmaxpu=1.5 vminpu=0.93 daily="IP-Tipo1_DO"
 
New "Load.IP_IP1049342_16969_M1" bus1="3807972838462879.1.4" phases=1 conn=Wye model=1 kv=0.219 kw = 0.2617533 pf=0.92 status=variable vmaxpu=1.5 vminpu=0.93 daily="IP-Tipo1_DO" 
New "Load.IP_IP1049342_16969_M2" bus1="3807972838462879.1.4" phases=1 conn=Wye model=2 kv=0.219 kw = 0.2617533 pf=0.92 status=variable vmaxpu=1.5 vminpu=0.93 daily="IP-Tipo1_DO"
 
New "Load.IP_IP1049343_16970_M1" bus1="3807525538462601.1.4" phases=1 conn=Wye model=1 kv=0.219 kw = 0.2617533 pf=0.92 status=variable vmaxpu=1.5 vminpu=0.93 daily="IP-Tipo1_DO" 
New "Load.IP_IP1049343_16970_M2" bus1="3807525538462601.1.4" phases=1 conn=Wye model=2 kv=0.219 kw = 0.2617533 pf=0.92 status=variable vmaxpu=1.5 vminpu=0.93 daily="IP-Tipo1_DO"
 
New "Load.IP_IP1049344_16971_M1" bus1="3807701538461942.2.4" phases=1 conn=Wye model=1 kv=0.219 kw = 0.2617533 pf=0.92 status=variable vmaxpu=1.5 vminpu=0.93 daily="IP-Tipo1_DO" 
New "Load.IP_IP1049344_16971_M2" bus1="3807701538461942.2.4" phases=1 conn=Wye model=2 kv=0.219 kw = 0.2617533 pf=0.92 status=variable vmaxpu=1.5 vminpu=0.93 daily="IP-Tipo1_DO"
 
New "Load.IP_IP1049347_16972_M1" bus1="3806441338461314.2.4" phases=1 conn=Wye model=1 kv=0.219 kw = 0.2617533 pf=0.92 status=variable vmaxpu=1.5 vminpu=0.93 daily="IP-Tipo1_DO" 
New "Load.IP_IP1049347_16972_M2" bus1="3806441338461314.2.4" phases=1 conn=Wye model=2 kv=0.219 kw = 0.2617533 pf=0.92 status=variable vmaxpu=1.5 vminpu=0.93 daily="IP-Tipo1_DO"
 
New "Load.IP_IP1049348_16973_M1" bus1="3806086338461332.2.4" phases=1 conn=Wye model=1 kv=0.219 kw = 0.2617533 pf=0.92 status=variable vmaxpu=1.5 vminpu=0.93 daily="IP-Tipo1_DO" 
New "Load.IP_IP1049348_16973_M2" bus1="3806086338461332.2.4" phases=1 conn=Wye model=2 kv=0.219 kw = 0.2617533 pf=0.92 status=variable vmaxpu=1.5 vminpu=0.93 daily="IP-Tipo1_DO"
 
New "Load.IP_IP1049361_16979_M1" bus1="3806228938461111.2.4" phases=1 conn=Wye model=1 kv=0.219 kw = 0.2560781 pf=0.92 status=variable vmaxpu=1.5 vminpu=0.93 daily="IP-Tipo1_DO" 
New "Load.IP_IP1049361_16979_M2" bus1="3806228938461111.2.4" phases=1 conn=Wye model=2 kv=0.219 kw = 0.2560781 pf=0.92 status=variable vmaxpu=1.5 vminpu=0.93 daily="IP-Tipo1_DO"
 
New "Load.IP_IP1049363_16980_M1" bus1="3806804138461302.2.4" phases=1 conn=Wye model=1 kv=0.219 kw = 0.2560781 pf=0.92 status=variable vmaxpu=1.5 vminpu=0.93 daily="IP-Tipo1_DO" 
New "Load.IP_IP1049363_16980_M2" bus1="3806804138461302.2.4" phases=1 conn=Wye model=2 kv=0.219 kw = 0.2560781 pf=0.92 status=variable vmaxpu=1.5 vminpu=0.93 daily="IP-Tipo1_DO"
 
New "Load.IP_IP1049365_16981_M1" bus1="3807725438461493.1.4" phases=1 conn=Wye model=1 kv=0.219 kw = 0.2560781 pf=0.92 status=variable vmaxpu=1.5 vminpu=0.93 daily="IP-Tipo1_DO" 
New "Load.IP_IP1049365_16981_M2" bus1="3807725438461493.1.4" phases=1 conn=Wye model=2 kv=0.219 kw = 0.2560781 pf=0.92 status=variable vmaxpu=1.5 vminpu=0.93 daily="IP-Tipo1_DO"
 
New "Load.IP_IP1049367_16982_M1" bus1="3808171938458876.2.4" phases=1 conn=Wye model=1 kv=0.219 kw = 0.2560781 pf=0.92 status=variable vmaxpu=1.5 vminpu=0.93 daily="IP-Tipo1_DO" 
New "Load.IP_IP1049367_16982_M2" bus1="3808171938458876.2.4" phases=1 conn=Wye model=2 kv=0.219 kw = 0.2560781 pf=0.92 status=variable vmaxpu=1.5 vminpu=0.93 daily="IP-Tipo1_DO"
 
New "Load.IP_IP1049369_16983_M1" bus1="3808577238459204.1.4" phases=1 conn=Wye model=1 kv=0.219 kw = 0.2560781 pf=0.92 status=variable vmaxpu=1.5 vminpu=0.93 daily="IP-Tipo1_DO" 
New "Load.IP_IP1049369_16983_M2" bus1="3808577238459204.1.4" phases=1 conn=Wye model=2 kv=0.219 kw = 0.2560781 pf=0.92 status=variable vmaxpu=1.5 vminpu=0.93 daily="IP-Tipo1_DO"
 
New "Load.IP_IP1049373_16984_M1" bus1="3809923938458685.2.4" phases=1 conn=Wye model=1 kv=0.219 kw = 0.2560781 pf=0.92 status=variable vmaxpu=1.5 vminpu=0.93 daily="IP-Tipo1_DO" 