New "Line.CMT_FD51L0211" phases=3 bus1="3830755638461928.1.2.3" bus2="3830755638461928F.1.2.3" r1=0.001 r0=0.001 x1=0.0 x0=0.0 c1=0.0 c0=0.0  switch = T length=0.00100
New "Line.CMT_FD77L1000" phases=3 bus1="3834662738460550.1.2.3" bus2="3834662738460550F.1.2.3" r1=0.001 r0=0.001 x1=0.0 x0=0.0 c1=0.0 c0=0.0  switch = T length=0.00100
New "Line.CMT_FF24E1155" phases=3 bus1="3826506138454644.1.2.3" bus2="3826506138454644F.1.2.3" r1=0.001 r0=0.001 x1=0.0 x0=0.0 c1=0.0 c0=0.0  switch = T length=0.00100
New "Line.CMT_FF34E0585" phases=3 bus1="3792459938471805.1.2.3" bus2="3792459938471805F.1.2.3" r1=0.001 r0=0.001 x1=0.0 x0=0.0 c1=0.0 c0=0.0  switch = T length=0.00100
New "Line.CMT_FF61E1708" phases=3 bus1="3826134338464502.1.2.3" bus2="3826134338464502F.1.2.3" r1=0.001 r0=0.001 x1=0.0 x0=0.0 c1=0.0 c0=0.0  switch = T length=0.00100
New "Line.CMT_FF61E2081" phases=3 bus1="3825098638461343.1.2.3" bus2="3825098638461343F.1.2.3" r1=0.001 r0=0.001 x1=0.0 x0=0.0 c1=0.0 c0=0.0  switch = T length=0.00100
New "Line.CMT_FF61E2782" phases=3 bus1="3823718838455201.1.2.3" bus2="3823718838455201F.1.2.3" r1=0.001 r0=0.001 x1=0.0 x0=0.0 c1=0.0 c0=0.0  switch = T length=0.00100
New "Line.CMT_FF61E2828" phases=3 bus1="3823589238454806.1.2.3" bus2="3823589238454806F.1.2.3" r1=0.001 r0=0.001 x1=0.0 x0=0.0 c1=0.0 c0=0.0  switch = T length=0.00100
New "Line.CMT_FF61E2958" phases=3 bus1="3823234438453649.1.2.3" bus2="3823234438453649F.1.2.3" r1=0.001 r0=0.001 x1=0.0 x0=0.0 c1=0.0 c0=0.0  switch = T length=0.00100
New "Line.CMT_FF64E0005" phases=3 bus1="3824422038459243.1.2.3" bus2="3824422038459243F.1.2.3" r1=0.001 r0=0.001 x1=0.0 x0=0.0 c1=0.0 c0=0.0  switch = T length=0.00100
New "Line.CMT_FF90E1021" phases=3 bus1="3807260938459244.1.2.3" bus2="3807260938459244F.1.2.3" r1=0.001 r0=0.001 x1=0.0 x0=0.0 c1=0.0 c0=0.0  switch = T length=0.00100
New "Line.CMT_FF90E1843" phases=3 bus1="3805868038451944.1.2.3" bus2="3805868038451944F.1.2.3" r1=0.001 r0=0.001 x1=0.0 x0=0.0 c1=0.0 c0=0.0  switch = T length=0.00100
New "Line.CMT_FF90E4362" phases=3 bus1="3810441738431085.1.2.3" bus2="3810441738431085F.1.2.3" r1=0.001 r0=0.001 x1=0.0 x0=0.0 c1=0.0 c0=0.0  switch = T length=0.00100
New "Line.CMT_FF90E4431" phases=3 bus1="3810629338429955.1.2.3" bus2="3810629338429955F.1.2.3" r1=0.001 r0=0.001 x1=0.0 x0=0.0 c1=0.0 c0=0.0  switch = T length=0.00100
New "Line.CMT_FF90E5031" phases=3 bus1="3811400638424944.1.2.3" bus2="3811400638424944F.1.2.3" r1=0.001 r0=0.001 x1=0.0 x0=0.0 c1=0.0 c0=0.0  switch = T length=0.00100
New "Line.CMT_FF90E5064" phases=3 bus1="3811448138424683.1.2.3" bus2="3811448138424683F.1.2.3" r1=0.001 r0=0.001 x1=0.0 x0=0.0 c1=0.0 c0=0.0  switch = T length=0.00100
New "Line.CMT_FF97E0022" phases=3 bus1="3806581638454978.1.2.3" bus2="3806581638454978F.1.2.3" r1=0.001 r0=0.001 x1=0.0 x0=0.0 c1=0.0 c0=0.0  switch = T length=0.00100
New "Line.CMT_FF99E0295" phases=3 bus1="3813668038425615.1.2.3" bus2="3813668038425615F.1.2.3" r1=0.001 r0=0.001 x1=0.0 x0=0.0 c1=0.0 c0=0.0  switch = T length=0.00100
New "Line.CMT_FF99E0310" phases=3 bus1="3813799938425624.1.2.3" bus2="3813799938425624F.1.2.3" r1=0.001 r0=0.001 x1=0.0 x0=0.0 c1=0.0 c0=0.0  switch = T length=0.00100
New "Line.CMT_FG71L1039" phases=3 bus1="3807684238468360.1.2.3" bus2="3807684238468360F.1.2.3" r1=0.001 r0=0.001 x1=0.0 x0=0.0 c1=0.0 c0=0.0  switch = T length=0.00100
New "Line.CMT_FH94E0506" phases=3 bus1="3792495038472522.1.2.3" bus2="3792495038472522F.1.2.3" r1=0.001 r0=0.001 x1=0.0 x0=0.0 c1=0.0 c0=0.0  switch = T length=0.00100
New "Line.CMT_FH94E0546" phases=3 bus1="3792863538472507.1.2.3" bus2="3792863538472507F.1.2.3" r1=0.001 r0=0.001 x1=0.0 x0=0.0 c1=0.0 c0=0.0  switch = T length=0.00100
New "Line.CMT_FH94S2125" phases=3 bus1="3807733738471216.1.2.3" bus2="3807733738471216F.1.2.3" r1=0.001 r0=0.001 x1=0.0 x0=0.0 c1=0.0 c0=0.0  switch = T length=0.00100
New "Line.CMT_FI02E3347" phases=3 bus1="3820453538451745.1.2.3" bus2="3820453538451745F.1.2.3" r1=0.001 r0=0.001 x1=0.0 x0=0.0 c1=0.0 c0=0.0  switch = T length=0.00100
New "Line.CMT_FI02E3422" phases=3 bus1="3819878138451422.1.2.3" bus2="3819878138451422F.1.2.3" r1=0.001 r0=0.001 x1=0.0 x0=0.0 c1=0.0 c0=0.0  switch = T length=0.00100
New "Line.CMT_FI02E3585" phases=3 bus1="3818574638450734.1.2.3" bus2="3818574638450734F.1.2.3" r1=0.001 r0=0.001 x1=0.0 x0=0.0 c1=0.0 c0=0.0  switch = T length=0.00100
New "Line.CMT_FI02E3681" phases=3 bus1="3817712938450452.1.2.3" bus2="3817712938450452F.1.2.3" r1=0.001 r0=0.001 x1=0.0 x0=0.0 c1=0.0 c0=0.0  switch = T length=0.00100
New "Line.CMT_FI02E4262" phases=3 bus1="3812667438449412.1.2.3" bus2="3812667438449412F.1.2.3" r1=0.001 r0=0.001 x1=0.0 x0=0.0 c1=0.0 c0=0.0  switch = T length=0.00100
New "Line.CMT_FI02E4712" phases=3 bus1="3808640138448826.1.2.3" bus2="3808640138448826F.1.2.3" r1=0.001 r0=0.001 x1=0.0 x0=0.0 c1=0.0 c0=0.0  switch = T length=0.00100
New "Line.CMT_FI83E1122" phases=3 bus1="3818700238449390.1.2.3" bus2="3818700238449390F.1.2.3" r1=0.001 r0=0.001 x1=0.0 x0=0.0 c1=0.0 c0=0.0  switch = T length=0.00100
New "Line.CMT_FI91L2509" phases=3 bus1="3823347738433917.1.2.3" bus2="3823347738433917F.1.2.3" r1=0.001 r0=0.001 x1=0.0 x0=0.0 c1=0.0 c0=0.0  switch = T length=0.00100
New "Line.CMT_FJ32E1485" phases=3 bus1="3814188738436604.1.2.3" bus2="3814188738436604F.1.2.3" r1=0.001 r0=0.001 x1=0.0 x0=0.0 c1=0.0 c0=0.0  switch = T length=0.00100
New "Line.CMT_FJ32E2030" phases=3 bus1="3818833238438101.1.2.3" bus2="3818833238438101F.1.2.3" r1=0.001 r0=0.001 x1=0.0 x0=0.0 c1=0.0 c0=0.0  switch = T length=0.00100
New "Line.CMT_FJ32E2110" phases=3 bus1="3819487738438341.1.2.3" bus2="3819487738438341F.1.2.3" r1=0.001 r0=0.001 x1=0.0 x0=0.0 c1=0.0 c0=0.0  switch = T length=0.00100
New "Line.CMT_FJ33E1280" phases=3 bus1="3818430038435283.1.2.3" bus2="3818430038435283F.1.2.3" r1=0.001 r0=0.001 x1=0.0 x0=0.0 c1=0.0 c0=0.0  switch = T length=0.00100
New "Line.CMT_FJ33E1545" phases=3 bus1="3819083038432908.1.2.3" bus2="3819083038432908F.1.2.3" r1=0.001 r0=0.001 x1=0.0 x0=0.0 c1=0.0 c0=0.0  switch = T length=0.00100
New "Line.CMT_FJ33E1599" phases=3 bus1="3819231238432479.1.2.3" bus2="3819231238432479F.1.2.3" r1=0.001 r0=0.001 x1=0.0 x0=0.0 c1=0.0 c0=0.0  switch = T length=0.00100
New "Line.CMT_FJ42E1040" phases=3 bus1="3808310738464480.1.2.3" bus2="3808310738464480F.1.2.3" r1=0.001 r0=0.001 x1=0.0 x0=0.0 c1=0.0 c0=0.0  switch = T length=0.00100
New "Line.CMT_FKS2002" phases=3 bus1="3833191238424057.1.2.3" bus2="3833191238424057F.1.2.3" r1=0.001 r0=0.001 x1=0.0 x0=0.0 c1=0.0 c0=0.0  switch = T length=0.00100
New "Line.CMT_FK27E0971" phases=3 bus1="3808040438463365.1.2.3" bus2="3808040438463365F.1.2.3" r1=0.001 r0=0.001 x1=0.0 x0=0.0 c1=0.0 c0=0.0  switch = T length=0.00100
New "Line.CMT_FK30E1753" phases=3 bus1="3810496238459106.1.2.3" bus2="3810496238459106F.1.2.3" r1=0.001 r0=0.001 x1=0.0 x0=0.0 c1=0.0 c0=0.0  switch = T length=0.00100
New "Line.CMT_FM94L1000" phases=3 bus1="3829686838463292.1.2.3" bus2="3829686838463292F.1.2.3" r1=0.001 r0=0.001 x1=0.0 x0=0.0 c1=0.0 c0=0.0  switch = T length=0.00100
New "Line.CMT_FN18E0003" phases=3 bus1="3809726338456179.1.2.3" bus2="3809726338456179F.1.2.3" r1=0.001 r0=0.001 x1=0.0 x0=0.0 c1=0.0 c0=0.0  switch = T length=0.00100
New "Line.CMT_FN36L0928" phases=3 bus1="3823390438433734.1.2.3" bus2="3823390438433734F.1.2.3" r1=0.001 r0=0.001 x1=0.0 x0=0.0 c1=0.0 c0=0.0  switch = T length=0.00100
New "Line.CMT_FO35E2124" phases=3 bus1="3825200638464784.1.2.3" bus2="3825200638464784F.1.2.3" r1=0.001 r0=0.001 x1=0.0 x0=0.0 c1=0.0 c0=0.0  switch = T length=0.00100
New "Line.CMT_FO35E2222" phases=3 bus1="3824373838465059.1.2.3" bus2="3824373838465059F.1.2.3" r1=0.001 r0=0.001 x1=0.0 x0=0.0 c1=0.0 c0=0.0  switch = T length=0.00100
New "Line.CMT_FO35E2319" phases=3 bus1="3823638238465513.1.2.3" bus2="3823638238465513F.1.2.3" r1=0.001 r0=0.001 x1=0.0 x0=0.0 c1=0.0 c0=0.0  switch = T length=0.00100
New "Line.CMT_FO35E2459" phases=3 bus1="3822498438466059.1.2.3" bus2="3822498438466059F.1.2.3" r1=0.001 r0=0.001 x1=0.0 x0=0.0 c1=0.0 c0=0.0  switch = T length=0.00100
New "Line.CMT_FT17L0685" phases=3 bus1="3821909138439019.1.2.3" bus2="3821909138439019F.1.2.3" r1=0.001 r0=0.001 x1=0.0 x0=0.0 c1=0.0 c0=0.0  switch = T length=0.00100
New "Line.CMT_FT21E2000" phases=3 bus1="3806697038458205.1.2.3" bus2="3806697038458205F.1.2.3" r1=0.001 r0=0.001 x1=0.0 x0=0.0 c1=0.0 c0=0.0  switch = T length=0.00100
New "Line.CMT_FU22E2000" phases=3 bus1="3826304938464623.1.2.3" bus2="3826304938464623F.1.2.3" r1=0.001 r0=0.001 x1=0.0 x0=0.0 c1=0.0 c0=0.0  switch = T length=0.00100
New "Line.CMT_FU22E2223" phases=3 bus1="3828106538463831.1.2.3" bus2="3828106538463831F.1.2.3" r1=0.001 r0=0.001 x1=0.0 x0=0.0 c1=0.0 c0=0.0  switch = T length=0.00100
New "Line.CMT_FU22E2563" phases=3 bus1="3830876138462532.1.2.3" bus2="3830876138462532F.1.2.3" r1=0.001 r0=0.001 x1=0.0 x0=0.0 c1=0.0 c0=0.0  switch = T length=0.00100
New "Line.CMT_FU22E2836" phases=3 bus1="3833004638461309.1.2.3" bus2="3833004638461309F.1.2.3" r1=0.001 r0=0.001 x1=0.0 x0=0.0 c1=0.0 c0=0.0  switch = T length=0.00100
New "Line.CMT_FU22E2985" phases=3 bus1="3834179238460665.1.2.3" bus2="3834179238460665F.1.2.3" r1=0.001 r0=0.001 x1=0.0 x0=0.0 c1=0.0 c0=0.0  switch = T length=0.00100
New "Line.CMT_FU91E4687" phases=3 bus1="3807509038471225.1.2.3" bus2="3807509038471225F.1.2.3" r1=0.001 r0=0.001 x1=0.0 x0=0.0 c1=0.0 c0=0.0  switch = T length=0.00100
New "Line.CMT_FU91E4765" phases=3 bus1="3807544038470691.1.2.3" bus2="3807544038470691F.1.2.3" r1=0.001 r0=0.001 x1=0.0 x0=0.0 c1=0.0 c0=0.0  switch = T length=0.00100
New "Line.CMT_FU91E4939" phases=3 bus1="3807749238468829.1.2.3" bus2="3807749238468829F.1.2.3" r1=0.001 r0=0.001 x1=0.0 x0=0.0 c1=0.0 c0=0.0  switch = T length=0.00100
New "Line.CMT_FU91E4961" phases=3 bus1="3807854238468635.1.2.3" bus2="3807854238468635F.1.2.3" r1=0.001 r0=0.001 x1=0.0 x0=0.0 c1=0.0 c0=0.0  switch = T length=0.00100
New "Line.CMT_FU91E5016" phases=3 bus1="3807845638468351.1.2.3" bus2="3807845638468351F.1.2.3" r1=0.001 r0=0.001 x1=0.0 x0=0.0 c1=0.0 c0=0.0  switch = T length=0.00100
New "Line.CMT_FU91E5131" phases=3 bus1="3807805038467209.1.2.3" bus2="3807805038467209F.1.2.3" r1=0.001 r0=0.001 x1=0.0 x0=0.0 c1=0.0 c0=0.0  switch = T length=0.00100
New "Line.CMT_FU91S5343" phases=3 bus1="3808021638465156.1.2.3" bus2="3808021638465156F.1.2.3" r1=0.001 r0=0.001 x1=0.0 x0=0.0 c1=0.0 c0=0.0  switch = T length=0.00100
New "Line.CMT_FV80L1033" phases=3 bus1="3829798438424612.1.2.3" bus2="3829798438424612F.1.2.3" r1=0.001 r0=0.001 x1=0.0 x0=0.0 c1=0.0 c0=0.0  switch = T length=0.00100
New "Line.CMT_FV82L1015" phases=3 bus1="3822916938424845.1.2.3" bus2="3822916938424845F.1.2.3" r1=0.001 r0=0.001 x1=0.0 x0=0.0 c1=0.0 c0=0.0  switch = T length=0.00100
New "Line.CMT_FV88L0911" phases=3 bus1="3823176538425453.1.2.3" bus2="3823176538425453F.1.2.3" r1=0.001 r0=0.001 x1=0.0 x0=0.0 c1=0.0 c0=0.0  switch = T length=0.00100
New "Line.CMT_FV88L1000" phases=3 bus1="3822681638425148.1.2.3" bus2="3822681638425148F.1.2.3" r1=0.001 r0=0.001 x1=0.0 x0=0.0 c1=0.0 c0=0.0  switch = T length=0.00100
New "Line.CMT_FV93L1000" phases=3 bus1="3823352238424592.1.2.3" bus2="3823352238424592F.1.2.3" r1=0.001 r0=0.001 x1=0.0 x0=0.0 c1=0.0 c0=0.0  switch = T length=0.00100
New "Line.CMT_FV93L1025" phases=3 bus1="3823543938424456.1.2.3" bus2="3823543938424456F.1.2.3" r1=0.001 r0=0.001 x1=0.0 x0=0.0 c1=0.0 c0=0.0  switch = T length=0.00100
New "Line.CMT_FV94L1195" phases=3 bus1="3822561938422934.1.2.3" bus2="3822561938422934F.1.2.3" r1=0.001 r0=0.001 x1=0.0 x0=0.0 c1=0.0 c0=0.0  switch = T length=0.00100
New "Line.CMT_FW70L1000" phases=3 bus1="3819494138422299.1.2.3" bus2="3819494138422299F.1.2.3" r1=0.001 r0=0.001 x1=0.0 x0=0.0 c1=0.0 c0=0.0  switch = T length=0.00100
New "Line.CMT_FW70L1060" phases=3 bus1="3819577238422814.1.2.3" bus2="3819577238422814F.1.2.3" r1=0.001 r0=0.001 x1=0.0 x0=0.0 c1=0.0 c0=0.0  switch = T length=0.00100
New "Line.CMT_FY41L1000" phases=3 bus1="3808624738471984.1.2.3" bus2="3808624738471984F.1.2.3" r1=0.001 r0=0.001 x1=0.0 x0=0.0 c1=0.0 c0=0.0  switch = T length=0.00100
New "Line.CMT_FZ04L1127" phases=3 bus1="3814281538427811.1.2.3" bus2="3814281538427811F.1.2.3" r1=0.001 r0=0.001 x1=0.0 x0=0.0 c1=0.0 c0=0.0  switch = T length=0.00100
New "Line.CMT_LJ32E1622" phases=3 bus1="3815316238436942.1.2.3" bus2="3815316238436942F.1.2.3" r1=0.001 r0=0.001 x1=0.0 x0=0.0 c1=0.0 c0=0.0  switch = T length=0.00100
New "Line.CMT_LN48L0985" phases=3 bus1="3827806838465992.1.2.3" bus2="3827806838465992F.1.2.3" r1=0.001 r0=0.001 x1=0.0 x0=0.0 c1=0.0 c0=0.0  switch = T length=0.00100
New "Line.CMT_RF90E2418" phases=3 bus1="3805351938446676.1.2.3" bus2="3805351938446676F.1.2.3" r1=0.001 r0=0.001 x1=0.0 x0=0.0 c1=0.0 c0=0.0  switch = T length=0.00100
New "Line.CMT_RI02E4429" phases=3 bus1="3811187538449067.1.2.3" bus2="3811187538449067F.1.2.3" r1=0.001 r0=0.001 x1=0.0 x0=0.0 c1=0.0 c0=0.0  switch = T length=0.00100
New "Line.CMT_RJ32E1022" phases=3 bus1="3809994438435914.1.2.3" bus2="3809994438435914F.1.2.3" r1=0.001 r0=0.001 x1=0.0 x0=0.0 c1=0.0 c0=0.0  switch = T length=0.00100
New "Line.CMT_RU22E2023" phases=3 bus1="3826477838464514.1.2.3" bus2="3826477838464514F.1.2.3" r1=0.001 r0=0.001 x1=0.0 x0=0.0 c1=0.0 c0=0.0  switch = T length=0.00100
New "Line.CMT_RU91E5732" phases=3 bus1="3807825838461903.1.2.3" bus2="3807825838461903F.1.2.3" r1=0.001 r0=0.001 x1=0.0 x0=0.0 c1=0.0 c0=0.0  switch = T length=0.00100
New "Line.CMT_SAGF01I2" phases=3 bus1="3790771738473805.1.2.3" bus2="3790771738473805F.1.2.3" r1=0.001 r0=0.001 x1=0.0 x0=0.0 c1=0.0 c0=0.0  switch = T length=0.00100
New "Line.CMT_SF34E0409" phases=3 bus1="3792600738473392.1.2.3" bus2="3792600738473392F.1.2.3" r1=0.001 r0=0.001 x1=0.0 x0=0.0 c1=0.0 c0=0.0  switch = T length=0.00100
New "Line.CMT_SF52E3280" phases=3 bus1="3808237438461790.1.2.3" bus2="3808237438461790F.1.2.3" r1=0.001 r0=0.001 x1=0.0 x0=0.0 c1=0.0 c0=0.0  switch = T length=0.00100
New "Line.CMT_SF52E3309" phases=3 bus1="3807950038461685.1.2.3" bus2="3807950038461685F.1.2.3" r1=0.001 r0=0.001 x1=0.0 x0=0.0 c1=0.0 c0=0.0  switch = T length=0.00100
New "Line.CMT_SF61E1652" phases=3 bus1="3826306138464945.1.2.3" bus2="3826306138464945F.1.2.3" r1=0.001 r0=0.001 x1=0.0 x0=0.0 c1=0.0 c0=0.0  switch = T length=0.00100
New "Line.CMT_SF61E1751" phases=3 bus1="3826034938464087.1.2.3" bus2="3826034938464087F.1.2.3" r1=0.001 r0=0.001 x1=0.0 x0=0.0 c1=0.0 c0=0.0  switch = T length=0.00100
New "Line.CMT_SF61E1975" phases=3 bus1="3825340538462183.1.2.3" bus2="3825340538462183F.1.2.3" r1=0.001 r0=0.001 x1=0.0 x0=0.0 c1=0.0 c0=0.0  switch = T length=0.00100
New "Line.CMT_SF61E2020" phases=3 bus1="3825216638461804.1.2.3" bus2="3825216638461804F.1.2.3" r1=0.001 r0=0.001 x1=0.0 x0=0.0 c1=0.0 c0=0.0  switch = T length=0.00100
New "Line.CMT_SF90E1336" phases=3 bus1="3806657138456413.1.2.3" bus2="3806657138456413F.1.2.3" r1=0.001 r0=0.001 x1=0.0 x0=0.0 c1=0.0 c0=0.0  switch = T length=0.00100
New "Line.CMT_SF90E1890" phases=3 bus1="3805910838451579.1.2.3" bus2="3805910838451579F.1.2.3" r1=0.001 r0=0.001 x1=0.0 x0=0.0 c1=0.0 c0=0.0  switch = T length=0.00100
New "Line.CMT_SF90E2085" phases=3 bus1="3805764338449810.1.2.3" bus2="3805764338449810F.1.2.3" r1=0.001 r0=0.001 x1=0.0 x0=0.0 c1=0.0 c0=0.0  switch = T length=0.00100
New "Line.CMT_SF90E2130" phases=3 bus1="3805752438449629.1.2.3" bus2="3805752438449629F.1.2.3" r1=0.001 r0=0.001 x1=0.0 x0=0.0 c1=0.0 c0=0.0  switch = T length=0.00100
New "Line.CMT_SF90E2165" phases=3 bus1="3805700638449421.1.2.3" bus2="3805700638449421F.1.2.3" r1=0.001 r0=0.001 x1=0.0 x0=0.0 c1=0.0 c0=0.0  switch = T length=0.00100
New "Line.CMT_SF90E3628" phases=3 bus1="3809476338437584.1.2.3" bus2="3809476338437584F.1.2.3" r1=0.001 r0=0.001 x1=0.0 x0=0.0 c1=0.0 c0=0.0  switch = T length=0.00100
New "Line.CMT_SF90E3763" phases=3 bus1="3809654338436234.1.2.3" bus2="3809654338436234F.1.2.3" r1=0.001 r0=0.001 x1=0.0 x0=0.0 c1=0.0 c0=0.0  switch = T length=0.00100
New "Line.CMT_SF90E3942" phases=3 bus1="3809897238434725.1.2.3" bus2="3809897238434725F.1.2.3" r1=0.001 r0=0.001 x1=0.0 x0=0.0 c1=0.0 c0=0.0  switch = T length=0.00100
New "Line.CMT_SF90E4254" phases=3 bus1="3810315338431945.1.2.3" bus2="3810315338431945F.1.2.3" r1=0.001 r0=0.001 x1=0.0 x0=0.0 c1=0.0 c0=0.0  switch = T length=0.00100
New "Line.CMT_SF90E4501" phases=3 bus1="3810715638429327.1.2.3" bus2="3810715638429327F.1.2.3" r1=0.001 r0=0.001 x1=0.0 x0=0.0 c1=0.0 c0=0.0  switch = T length=0.00100
New "Line.CMT_SF90E4563" phases=3 bus1="3810797438428771.1.2.3" bus2="3810797438428771F.1.2.3" r1=0.001 r0=0.001 x1=0.0 x0=0.0 c1=0.0 c0=0.0  switch = T length=0.00100
New "Line.CMT_SF99E0248" phases=3 bus1="3813368738425586.1.2.3" bus2="3813368738425586F.1.2.3" r1=0.001 r0=0.001 x1=0.0 x0=0.0 c1=0.0 c0=0.0  switch = T length=0.00100
New "Line.CMT_SG92E2719" phases=3 bus1="3791290338473622.1.2.3" bus2="3791290338473622F.1.2.3" r1=0.001 r0=0.001 x1=0.0 x0=0.0 c1=0.0 c0=0.0  switch = T length=0.00100
New "Line.CMT_SG92E2724" phases=3 bus1="3791323838473578.1.2.3" bus2="3791323838473578F.1.2.3" r1=0.001 r0=0.001 x1=0.0 x0=0.0 c1=0.0 c0=0.0  switch = T length=0.00100
New "Line.CMT_SI02E3152" phases=3 bus1="3821995338452547.1.2.3" bus2="3821995338452547F.1.2.3" r1=0.001 r0=0.001 x1=0.0 x0=0.0 c1=0.0 c0=0.0  switch = T length=0.00100
New "Line.CMT_SI02E3446" phases=3 bus1="3819616038451250.1.2.3" bus2="3819616038451250F.1.2.3" r1=0.001 r0=0.001 x1=0.0 x0=0.0 c1=0.0 c0=0.0  switch = T length=0.00100
New "Line.CMT_SI02E3762" phases=3 bus1="3816929038450454.1.2.3" bus2="3816929038450454F.1.2.3" r1=0.001 r0=0.001 x1=0.0 x0=0.0 c1=0.0 c0=0.0  switch = T length=0.00100
New "Line.CMT_SI02E4385" phases=3 bus1="3811585138449165.1.2.3" bus2="3811585138449165F.1.2.3" r1=0.001 r0=0.001 x1=0.0 x0=0.0 c1=0.0 c0=0.0  switch = T length=0.00100
New "Line.CMT_SI91L2802" phases=3 bus1="3825320238434490.1.2.3" bus2="3825320238434490F.1.2.3" r1=0.001 r0=0.001 x1=0.0 x0=0.0 c1=0.0 c0=0.0  switch = T length=0.00100
New "Line.CMT_SJ32E1001" phases=3 bus1="3809763438435859.1.2.3" bus2="3809763438435859F.1.2.3" r1=0.001 r0=0.001 x1=0.0 x0=0.0 c1=0.0 c0=0.0  switch = T length=0.00100
New "Line.CMT_SJ32E1767" phases=3 bus1="3816560038437312.1.2.3" bus2="3816560038437312F.1.2.3" r1=0.001 r0=0.001 x1=0.0 x0=0.0 c1=0.0 c0=0.0  switch = T length=0.00100
New "Line.CMT_SJ33E1010" phases=3 bus1="3817801538437626.1.2.3" bus2="3817801538437626F.1.2.3" r1=0.001 r0=0.001 x1=0.0 x0=0.0 c1=0.0 c0=0.0  switch = T length=0.00100
New "Line.CMT_SJ33E1533" phases=3 bus1="3819027538433087.1.2.3" bus2="3819027538433087F.1.2.3" r1=0.001 r0=0.001 x1=0.0 x0=0.0 c1=0.0 c0=0.0  switch = T length=0.00100
New "Line.CMT_SN93E0233" phases=3 bus1="3826407438458050.1.2.3" bus2="3826407438458050F.1.2.3" r1=0.001 r0=0.001 x1=0.0 x0=0.0 c1=0.0 c0=0.0  switch = T length=0.00100
New "Line.CMT_SS57E1013" phases=3 bus1="3812131738423995.1.2.3" bus2="3812131738423995F.1.2.3" r1=0.001 r0=0.001 x1=0.0 x0=0.0 c1=0.0 c0=0.0  switch = T length=0.00100
New "Line.CMT_SS57E1014" phases=3 bus1="3812117438424001.1.2.3" bus2="3812117438424001F.1.2.3" r1=0.001 r0=0.001 x1=0.0 x0=0.0 c1=0.0 c0=0.0  switch = T length=0.00100
New "Line.CMT_SS57E1562" phases=3 bus1="3816927538423079.1.2.3" bus2="3816927538423079F.1.2.3" r1=0.001 r0=0.001 x1=0.0 x0=0.0 c1=0.0 c0=0.0  switch = T length=0.00100
New "Line.CMT_SS57E1809" phases=3 bus1="3819092138422390.1.2.3" bus2="3819092138422390F.1.2.3" r1=0.001 r0=0.001 x1=0.0 x0=0.0 c1=0.0 c0=0.0  switch = T length=0.00100
New "Line.CMT_SS57E1944" phases=3 bus1="3820262738422136.1.2.3" bus2="3820262738422136F.1.2.3" r1=0.001 r0=0.001 x1=0.0 x0=0.0 c1=0.0 c0=0.0  switch = T length=0.00100
New "Line.CMT_SS57E1989" phases=3 bus1="3820673238422020.1.2.3" bus2="3820673238422020F.1.2.3" r1=0.001 r0=0.001 x1=0.0 x0=0.0 c1=0.0 c0=0.0  switch = T length=0.00100
New "Line.CMT_SU22E2000" phases=3 bus1="3826297438464608.1.2.3" bus2="3826297438464608F.1.2.3" r1=0.001 r0=0.001 x1=0.0 x0=0.0 c1=0.0 c0=0.0  switch = T length=0.00100
New "Line.CMT_SU22E2618" phases=3 bus1="3831313738462305.1.2.3" bus2="3831313738462305F.1.2.3" r1=0.001 r0=0.001 x1=0.0 x0=0.0 c1=0.0 c0=0.0  switch = T length=0.00100
New "Line.CMT_SU22E2699" phases=3 bus1="3831995538461912.1.2.3" bus2="3831995538461912F.1.2.3" r1=0.001 r0=0.001 x1=0.0 x0=0.0 c1=0.0 c0=0.0  switch = T length=0.00100
New "Line.CMT_SU91E4810" phases=3 bus1="3807851538470063.1.2.3" bus2="3807851538470063F.1.2.3" r1=0.001 r0=0.001 x1=0.0 x0=0.0 c1=0.0 c0=0.0  switch = T length=0.00100
New "Line.CMT_SU91E5061" phases=3 bus1="3807849438467941.1.2.3" bus2="3807849438467941F.1.2.3" r1=0.001 r0=0.001 x1=0.0 x0=0.0 c1=0.0 c0=0.0  switch = T length=0.00100
New "Line.CMT_SU91E5628" phases=3 bus1="3807999138463438.1.2.3" bus2="3807999138463438F.1.2.3" r1=0.001 r0=0.001 x1=0.0 x0=0.0 c1=0.0 c0=0.0  switch = T length=0.00100
New "Line.CMT_SV80L1628" phases=3 bus1="3824472638425488.1.2.3" bus2="3824472638425488F.1.2.3" r1=0.001 r0=0.001 x1=0.0 x0=0.0 c1=0.0 c0=0.0  switch = T length=0.00100
New "Line.CMT_SV80L2000" phases=3 bus1="3821614938423003.1.2.3" bus2="3821614938423003F.1.2.3" r1=0.001 r0=0.001 x1=0.0 x0=0.0 c1=0.0 c0=0.0  switch = T length=0.00100
New "Line.CMT_SV80L2091" phases=3 bus1="3822343438422686.1.2.3" bus2="3822343438422686F.1.2.3" r1=0.001 r0=0.001 x1=0.0 x0=0.0 c1=0.0 c0=0.0  switch = T length=0.00100
New "Line.CMT_SV80L2105" phases=3 bus1="3821273538422103.1.2.3" bus2="3821273538422103F.1.2.3" r1=0.001 r0=0.001 x1=0.0 x0=0.0 c1=0.0 c0=0.0  switch = T length=0.00100
New "Line.CMT_SW07L1166" phases=3 bus1="3828781938427053.1.2.3" bus2="3828781938427053F.1.2.3" r1=0.001 r0=0.001 x1=0.0 x0=0.0 c1=0.0 c0=0.0  switch = T length=0.00100
New "Line.CMT_4I02E4429" phases=3 bus1="3811169038449081.1.2.3" bus2="3811169038449081F.1.2.3" r1=0.001 r0=0.001 x1=0.0 x0=0.0 c1=0.0 c0=0.0  switch = T length=0.00100
New "Line.CMT_5I02E4429" phases=3 bus1="3811202738449079.1.2.3" bus2="3811202738449079F.1.2.3" r1=0.001 r0=0.001 x1=0.0 x0=0.0 c1=0.0 c0=0.0  switch = T length=0.00100
New "Line.CMT_5U23E1080" phases=3 bus1="3831825338463159.1.2.3" bus2="3831825338463159F.1.2.3" r1=0.001 r0=0.001 x1=0.0 x0=0.0 c1=0.0 c0=0.0  switch = T length=0.00100
New "Line.CMT_6F52E3280" phases=3 bus1="3808245338461755.1.2.3" bus2="3808245338461755F.1.2.3" r1=0.001 r0=0.001 x1=0.0 x0=0.0 c1=0.0 c0=0.0  switch = T length=0.00100
New "Line.CMT_6F90E2418" phases=3 bus1="3805373838446674.1.2.3" bus2="3805373838446674F.1.2.3" r1=0.001 r0=0.001 x1=0.0 x0=0.0 c1=0.0 c0=0.0  switch = T length=0.00100
New "Line.CMT_6I02E4429" phases=3 bus1="3811188638449096.1.2.3" bus2="3811188638449096F.1.2.3" r1=0.001 r0=0.001 x1=0.0 x0=0.0 c1=0.0 c0=0.0  switch = T length=0.00100
New "Line.CMT_6J32E1022" phases=3 bus1="3809994738435889.1.2.3" bus2="3809994738435889F.1.2.3" r1=0.001 r0=0.001 x1=0.0 x0=0.0 c1=0.0 c0=0.0  switch = T length=0.00100
New "Line.CMT_6U22E2023" phases=3 bus1="3826483438464534.1.2.3" bus2="3826483438464534F.1.2.3" r1=0.001 r0=0.001 x1=0.0 x0=0.0 c1=0.0 c0=0.0  switch = T length=0.00100
New "Line.CMT_6U91E5732" phases=3 bus1="3807848538461900.1.2.3" bus2="3807848538461900F.1.2.3" r1=0.001 r0=0.001 x1=0.0 x0=0.0 c1=0.0 c0=0.0  switch = T length=0.00100
