New "Circuit.AGF01I2" basekv=13.8 pu=1.0499999523162842 bus1="PAC_AGF01I2" r1=0.0 x1=0.0001
