New "Loadshape.A3-Tipo01_DO" 24 1 mult=(1.0, 0.988099, 0.980996, 0.965294, 0.936818, 0.904916, 0.905633, 0.866845, 0.872765, 0.871737, 0.882672, 0.85133, 0.839741, 0.841859, 0.829335, 0.838931, 0.841984, 0.866658, 0.883856, 0.887158, 0.88342, 0.878559, 0.890087, 0.945542)
New "Loadshape.A3-Tipo01_DU" 24 1 mult=(0.905116, 0.894636, 0.892889, 0.900383, 0.898975, 0.901454, 0.895199, 0.903989, 0.935993, 0.925851, 0.943881, 0.938923, 0.945459, 0.951318, 0.969687, 0.972504, 0.977969, 0.982871, 0.996676, 0.987435, 1.0, 0.99121, 0.971152, 0.9738)
New "Loadshape.A3-Tipo01_SA" 24 1 mult=(1.0, 0.982171, 0.981119, 0.981645, 0.966271, 0.962998, 0.952709, 0.943532, 0.962998, 0.950634, 0.95914, 0.952826, 0.937686, 0.933302, 0.959081, 0.962939, 0.951306, 0.952359, 0.981294, 0.974747, 0.972701, 0.959666, 0.924475, 0.911732)
New "Loadshape.A3-Tipo02_DO" 24 1 mult=(0.872637, 0.786179, 0.707778, 0.717694, 0.690425, 0.637124, 0.625039, 0.596219, 0.677099, 0.671367, 0.814069, 0.806632, 0.827084, 0.915711, 0.920359, 0.931825, 0.963743, 0.941742, 0.998141, 1.0, 0.937093, 0.853114, 0.816548, 0.787729)
New "Loadshape.A3-Tipo02_DU" 24 1 mult=(0.239906, 0.231253, 0.224174, 0.219717, 0.21893, 0.269795, 0.342029, 0.568694, 0.772417, 0.722732, 0.964604, 0.952543, 0.947562, 0.968799, 1.0, 0.968013, 0.94258, 0.900891, 0.834557, 0.756162, 0.741741, 0.730991, 0.625852, 0.41269)
New "Loadshape.A3-Tipo02_SA" 24 1 mult=(0.581302, 0.548654, 0.504558, 0.548866, 0.508162, 0.520458, 0.601442, 0.734789, 0.848421, 0.803371, 0.952724, 0.92792, 0.9417, 0.95654, 0.9576, 0.994488, 1.0, 0.923256, 0.913716, 0.929192, 0.88022, 0.878312, 0.743481, 0.509646)
New "Loadshape.A3-Tipo03_DO" 24 1 mult=(1.0, 0.796983, 0.798614, 0.794537, 0.697106, 0.49042, 0.502446, 0.374236, 0.560538, 0.320016, 0.039951, 0.038728, 0.038728, 0.039136, 0.038728, 0.039136, 0.041174, 0.037913, 0.048512, 0.083571, 0.362413, 0.627395, 0.865063, 0.643294)
New "Loadshape.A3-Tipo03_DU" 24 1 mult=(0.743167, 0.741559, 0.743971, 0.765273, 1.0, 0.998392, 0.947548, 0.52291, 0.482717, 0.427653, 0.047428, 0.032154, 0.038987, 0.042605, 0.041399, 0.041801, 0.22508, 0.073955, 0.078778, 0.08963, 0.084405, 0.198151, 0.553859, 0.60209)
New "Loadshape.A3-Tipo03_SA" 24 1 mult=(0.74895, 0.742647, 0.742647, 0.742122, 0.702206, 0.692752, 0.468487, 0.264706, 0.345588, 0.306985, 0.268908, 0.379202, 0.681723, 0.688025, 0.460084, 0.356092, 0.355567, 0.358193, 0.359244, 0.348739, 0.493697, 0.551471, 1.0, 0.890756)
New "Loadshape.A3-Tipo04_DO" 24 1 mult=(0.795814, 0.753524, 0.714225, 0.991029, 0.958138, 0.867578, 0.878257, 0.767621, 0.780436, 0.757155, 0.748398, 0.657411, 0.68774, 0.616403, 0.623665, 0.626228, 0.68475, 0.758223, 0.842375, 0.840239, 1.0, 0.997437, 0.988894, 0.912431)
New "Loadshape.A3-Tipo04_DU" 24 1 mult=(0.647687, 0.642349, 0.6121, 0.507117, 0.3879, 0.437722, 0.410142, 0.517794, 0.620996, 0.652135, 1.0, 0.798932, 0.649466, 0.884342, 0.882562, 0.962633, 0.745552, 0.548043, 0.482206, 0.455516, 0.419929, 0.33452, 0.336299, 0.464413)
New "Loadshape.A3-Tipo04_SA" 24 1 mult=(1.0, 0.99957, 0.996991, 0.957008, 0.89037, 0.840499, 0.809329, 0.692175, 0.932932, 0.790843, 0.99742, 0.797936, 0.658641, 0.738177, 0.662081, 0.615219, 0.711522, 0.735168, 0.747635, 0.769561, 0.837489, 0.892949, 0.911866, 0.925623)
New "Loadshape.A3-Tipo05_DU" 24 1 mult=(0.127194, 0.133819, 0.135475, 0.136469, 0.145081, 0.16098, 0.245942, 0.526333, 0.762173, 0.719444, 1.0, 0.987744, 0.612786, 0.531633, 0.599868, 0.532627, 0.476648, 0.237496, 0.154356, 0.1315, 0.157337, 0.152037, 0.148394, 0.150712)
New "Loadshape.A3-Tipo05_SA" 24 1 mult=(0.412903, 0.365806, 0.36129, 0.380645, 0.355484, 0.418065, 0.430645, 0.56, 0.674839, 0.671613, 0.907097, 1.0, 0.790968, 0.560645, 0.529677, 0.583871, 0.454839, 0.392903, 0.345161, 0.339355, 0.386452, 0.318065, 0.273548, 0.286452)
New "Loadshape.A3-Tipo05_DO" 24 1 mult=(0.795297, 0.861687, 0.775934, 0.749654, 0.681881, 0.704011, 0.655602, 0.636238, 0.721992, 0.745505, 0.926694, 0.972337, 1.0, 0.91148, 0.839557, 0.84509, 0.878285, 0.932227, 0.904564, 0.903181, 0.861687, 0.829876, 0.813278, 0.807746)
New "Loadshape.COM-Tipo01_DO" 24 1 mult=(0.949364, 0.898186, 0.894666, 0.886271, 0.893312, 0.879773, 0.893312, 0.911996, 0.959653, 0.946791, 0.97915, 0.971839, 1.0, 0.998105, 0.990793, 0.978067, 0.966694, 0.980233, 0.999729, 0.994314, 0.990523, 0.970485, 0.964257, 0.949634)
New "Loadshape.COM-Tipo01_DU" 24 1 mult=(0.862287, 0.845012, 0.845012, 0.834063, 0.814842, 0.83382, 0.838686, 0.896107, 0.9, 0.910949, 0.963747, 0.967153, 0.97056, 0.954501, 1.0, 0.990268, 0.96691, 0.975669, 0.991241, 0.976886, 0.977129, 0.949148, 0.936496, 0.89635)
New "Loadshape.COM-Tipo01_SA" 24 1 mult=(0.873791, 0.854947, 0.833623, 0.824696, 0.811307, 0.820233, 0.823952, 0.880982, 0.903298, 0.911232, 0.962559, 0.955368, 0.974957, 0.978676, 0.983635, 0.975205, 0.986363, 0.991818, 1.0, 0.98066, 0.975205, 0.958096, 0.939003, 0.919415)
New "Loadshape.COM-Tipo02_DO" 24 1 mult=(0.653516, 0.560034, 0.525729, 0.512864, 0.500858, 0.433962, 0.441252, 0.442539, 0.524871, 0.459691, 0.512007, 0.469125, 0.432247, 0.439108, 0.535163, 0.512864, 0.643225, 0.685249, 1.0, 0.977702, 0.768439, 0.624357, 0.503431, 0.433962)
New "Loadshape.COM-Tipo02_DU" 24 1 mult=(0.143234, 0.133057, 0.119864, 0.116849, 0.11308, 0.116472, 0.136072, 0.24199, 0.20882, 0.239352, 0.262345, 0.260083, 0.25066, 0.334715, 0.448549, 0.595552, 0.697324, 0.724463, 1.0, 0.983415, 0.817188, 0.578967, 0.381832, 0.223897)
New "Loadshape.COM-Tipo02_SA" 24 1 mult=(0.433379, 0.394231, 0.368132, 0.309753, 0.296703, 0.232143, 0.286745, 0.355082, 0.292582, 0.333104, 0.416896, 0.351648, 0.521291, 0.475275, 0.633242, 0.824863, 0.736951, 0.800824, 0.907967, 1.0, 0.816621, 0.786401, 0.741071, 0.640797)
New "Loadshape.COM-Tipo03_DO" 24 1 mult=(0.627812, 0.626278, 0.608896, 0.631391, 0.642127, 0.632924, 0.654908, 0.885992, 0.943252, 0.944785, 0.98773, 1.0, 0.922802, 0.876789, 0.835378, 0.819018, 0.804703, 0.808793, 0.847137, 0.790389, 0.800613, 0.718303, 0.661554, 0.587423)
New "Loadshape.COM-Tipo03_DU" 24 1 mult=(0.361754, 0.369474, 0.341404, 0.367368, 0.375439, 0.381754, 0.412632, 0.664211, 0.775789, 0.748772, 0.886316, 1.0, 0.926316, 0.941053, 0.962807, 0.982807, 0.954035, 0.894737, 0.838246, 0.765614, 0.686316, 0.591579, 0.47614, 0.377193)
New "Loadshape.COM-Tipo03_SA" 24 1 mult=(0.474167, 0.465, 0.457083, 0.474167, 0.490417, 0.51, 0.504583, 0.702917, 0.872917, 0.802083, 0.944167, 0.972917, 0.987083, 0.96, 1.0, 0.966667, 0.915, 0.891667, 0.900833, 0.807083, 0.755833, 0.715417, 0.61125, 0.521667)
New "Loadshape.COM-Tipo04_DO" 24 1 mult=(0.877313, 0.828627, 0.828627, 0.862707, 0.849075, 0.814021, 0.817429, 0.88705, 0.908471, 0.926485, 1.0, 0.957157, 0.916261, 0.945472, 0.916261, 0.904576, 0.971762, 0.945472, 0.930867, 0.833496, 0.814021, 0.821811, 0.817916, 0.78481)
New "Loadshape.COM-Tipo04_DU" 24 1 mult=(0.090741, 0.09387, 0.094723, 0.091879, 0.089461, 0.088039, 0.113497, 0.423268, 0.826909, 0.682264, 0.966292, 0.989617, 0.855355, 0.943678, 1.0, 0.973972, 0.980088, 0.742284, 0.377045, 0.190727, 0.124022, 0.121462, 0.113924, 0.109088)
New "Loadshape.COM-Tipo04_SA" 24 1 mult=(0.233223, 0.213847, 0.22448, 0.204868, 0.214792, 0.217391, 0.248346, 0.506853, 0.842155, 0.727198, 1.0, 0.990548, 0.858932, 0.761106, 0.670841, 0.579395, 0.500709, 0.428639, 0.405955, 0.33672, 0.297732, 0.244329, 0.237949, 0.223535)
New "Loadshape.COM-Tipo05_DO" 24 1 mult=(0.910309, 0.978694, 0.953608, 0.974227, 1.0, 0.97732, 0.834708, 0.690722, 0.619931, 0.661512, 0.595189, 0.570103, 0.612371, 0.557388, 0.623711, 0.719931, 0.631959, 0.666667, 0.814433, 0.892096, 0.846392, 0.816495, 0.804467, 0.924399)
New "Loadshape.COM-Tipo05_DU" 24 1 mult=(1.0, 0.935654, 0.927918, 0.872714, 0.876934, 0.914557, 0.800457, 0.53481, 0.498945, 0.535162, 0.547117, 0.470816, 0.43038, 0.490155, 0.53481, 0.540436, 0.659986, 0.635021, 0.781294, 0.922293, 0.896976, 0.925457, 0.873769, 0.85865)
New "Loadshape.COM-Tipo05_SA" 24 1 mult=(0.991548, 1.0, 0.982421, 0.894523, 0.843813, 0.834009, 0.740365, 0.566599, 0.453009, 0.561021, 0.548682, 0.528059, 0.621704, 0.567275, 0.522312, 0.493915, 0.544625, 0.659567, 0.883367, 0.981406, 0.98073, 0.843475, 0.8881, 1.0)
New "Loadshape.IND-Tipo01_DO" 24 1 mult=(0.890756, 0.815126, 0.857143, 0.848739, 0.848739, 0.857143, 0.840336, 0.865546, 0.890756, 0.894958, 1.0, 1.0, 0.97479, 1.0, 0.92437, 0.865546, 0.882353, 0.840336, 0.89916, 0.932773, 0.882353, 0.823529, 0.781513, 0.747899)
New "Loadshape.IND-Tipo01_DU" 24 1 mult=(0.383333, 0.373333, 0.383333, 0.36, 0.376667, 0.413333, 0.436667, 0.653333, 0.936667, 0.798333, 0.95, 0.956667, 0.87, 0.923333, 0.98, 1.0, 0.986667, 0.873333, 0.796667, 0.666667, 0.56, 0.483333, 0.386667, 0.376667)
New "Loadshape.IND-Tipo01_SA" 24 1 mult=(0.58125, 0.54375, 0.55, 0.5375, 0.5375, 0.5875, 0.578125, 0.775, 0.9625, 0.8875, 1.0, 0.96875, 0.85625, 0.84375, 0.85625, 0.86875, 0.79375, 0.7125, 0.74375, 0.68125, 0.53125, 0.54375, 0.51875, 0.51875)
New "Loadshape.IND-Tipo02_DO" 24 1 mult=(0.868852, 0.852459, 0.868852, 0.885246, 0.836066, 0.885246, 0.901639, 1.0, 0.95082, 0.967213, 0.901639, 0.918033, 0.901639, 0.918033, 0.885246, 0.901639, 0.885246, 0.868852, 0.836066, 0.885246, 0.901639, 0.885246, 0.918033, 0.868852)
New "Loadshape.IND-Tipo02_DU" 24 1 mult=(0.818182, 0.787879, 0.772727, 0.772727, 0.80303, 0.818182, 0.840909, 0.893939, 0.863636, 0.848485, 0.909091, 0.954545, 1.0, 0.984848, 0.924242, 0.924242, 0.939394, 0.969697, 0.954545, 0.924242, 0.924242, 0.863636, 0.787879, 0.818182)
New "Loadshape.IND-Tipo02_SA" 24 1 mult=(0.859155, 0.802817, 0.802817, 0.774648, 0.802817, 0.859155, 0.838028, 0.929577, 0.985915, 0.943662, 0.929577, 0.957746, 0.957746, 0.985915, 1.0, 0.943662, 0.901408, 0.943662, 0.985915, 0.957746, 0.887324, 0.915493, 0.802817, 0.802817)
New "Loadshape.IND-Tipo03_DO" 24 1 mult=(0.9375, 0.854167, 0.8125, 0.770833, 0.770833, 0.770833, 0.729167, 0.604167, 0.645833, 0.604167, 0.666667, 0.625, 0.5625, 0.520833, 0.541667, 0.625, 0.5625, 0.666667, 0.833333, 0.854167, 0.9375, 0.958333, 0.958333, 1.0)
New "Loadshape.IND-Tipo03_DU" 24 1 mult=(0.826923, 0.788462, 0.673077, 0.711538, 0.711538, 0.653846, 0.663462, 0.576923, 0.480769, 0.509615, 0.423077, 0.519231, 0.5, 0.519231, 0.557692, 0.538462, 0.538462, 0.519231, 0.673077, 0.846154, 0.865385, 0.961538, 1.0, 1.0)
New "Loadshape.IND-Tipo03_SA" 24 1 mult=(0.903846, 0.903846, 0.769231, 0.807692, 0.846154, 0.769231, 0.788462, 0.692308, 0.673077, 0.673077, 0.653846, 0.634615, 0.538462, 0.692308, 0.673077, 0.596154, 0.634615, 0.730769, 0.711538, 0.730769, 0.711538, 0.807692, 0.903846, 1.0)
New "Loadshape.IND-Tipo04_DO" 24 1 mult=(0.857143, 1.0, 1.0, 1.0, 0.857143, 0.857143, 0.785714, 1.0, 1.0, 0.928571, 0.857143, 0.857143, 0.857143, 1.0, 1.0, 0.857143, 0.714286, 0.857143, 1.0, 1.0, 1.0, 1.0, 0.857143, 0.857143)
New "Loadshape.IND-Tipo04_DU" 24 1 mult=(0.082474, 0.123711, 0.154639, 0.14433, 0.134021, 0.103093, 0.185567, 0.649485, 0.804124, 0.824742, 1.0, 0.742268, 0.319588, 0.443299, 0.515464, 0.329897, 0.402062, 0.216495, 0.195876, 0.134021, 0.134021, 0.134021, 0.123711, 0.113402)
New "Loadshape.IND-Tipo04_SA" 24 1 mult=(0.611111, 0.666667, 0.666667, 0.666667, 0.666667, 0.555556, 0.583333, 0.833333, 1.0, 1.0, 1.0, 0.888889, 0.666667, 0.666667, 0.666667, 0.666667, 0.5, 0.444444, 0.555556, 0.722222, 0.611111, 0.611111, 0.555556, 0.5)
New "Loadshape.IND-Tipo05_DO" 24 1 mult=(0.9375, 0.9375, 0.9375, 0.9375, 0.9375, 0.9375, 0.90625, 0.875, 0.875, 0.90625, 1.0, 0.9375, 0.9375, 0.9375, 0.9375, 0.9375, 0.9375, 0.875, 1.0, 1.0, 0.9375, 0.9375, 0.9375, 0.9375)
New "Loadshape.IND-Tipo05_DU" 24 1 mult=(0.081081, 0.081081, 0.081081, 0.075676, 0.081081, 0.081081, 0.105405, 0.518919, 0.843243, 0.740541, 0.994595, 0.918919, 0.702703, 0.935135, 1.0, 0.935135, 0.794595, 0.443243, 0.140541, 0.091892, 0.086486, 0.081081, 0.081081, 0.081081)
New "Loadshape.IND-Tipo05_SA" 24 1 mult=(0.555556, 0.533333, 0.511111, 0.488889, 0.511111, 0.511111, 0.5, 0.755556, 0.911111, 0.877778, 1.0, 0.977778, 0.733333, 0.688889, 0.622222, 0.6, 0.555556, 0.511111, 0.466667, 0.466667, 0.466667, 0.488889, 0.488889, 0.444444)
New "Loadshape.IP-Tipo1_DO" 24 1 mult=(1.0, 1.0, 1.0, 1.0, 1.0, 0.792005, 0.541493, 0.0, 0.0, 0.0, 0.0, 0.0, 0.0, 0.0, 0.0, 0.0, 0.0, 0.125009, 0.917015, 1.0, 1.0, 1.0, 1.0, 1.0)
New "Loadshape.IP-Tipo1_DU" 24 1 mult=(1.0, 1.0, 1.0, 1.0, 1.0, 0.792005, 0.541493, 0.0, 0.0, 0.0, 0.0, 0.0, 0.0, 0.0, 0.0, 0.0, 0.0, 0.125009, 0.917015, 1.0, 1.0, 1.0, 1.0, 1.0)
New "Loadshape.IP-Tipo1_SA" 24 1 mult=(1.0, 1.0, 1.0, 1.0, 1.0, 0.792005, 0.541493, 0.0, 0.0, 0.0, 0.0, 0.0, 0.0, 0.0, 0.0, 0.0, 0.0, 0.125009, 0.917015, 1.0, 1.0, 1.0, 1.0, 1.0)
New "Loadshape.MT-Tipo01_DO" 24 1 mult=(0.758621, 0.827586, 0.758621, 0.758621, 0.758621, 0.724138, 0.672414, 0.586207, 0.689655, 0.62069, 0.62069, 0.689655, 0.62069, 0.62069, 0.62069, 0.62069, 0.62069, 0.724138, 0.965517, 0.965517, 1.0, 0.896552, 0.827586, 0.862069)
New "Loadshape.MT-Tipo01_DU" 24 1 mult=(0.169355, 0.169355, 0.169355, 0.153226, 0.145161, 0.137097, 0.149194, 0.177419, 0.282258, 0.28629, 0.58871, 0.645161, 0.572581, 0.830645, 0.895161, 0.887097, 1.0, 0.75, 0.532258, 0.491935, 0.459677, 0.362903, 0.282258, 0.25)
New "Loadshape.MT-Tipo01_SA" 24 1 mult=(0.758621, 0.724138, 0.689655, 0.689655, 0.689655, 0.689655, 0.672414, 0.586207, 1.0, 0.758621, 0.862069, 1.0, 0.931034, 1.0, 0.827586, 0.758621, 0.793103, 0.862069, 0.827586, 0.758621, 0.758621, 0.793103, 0.689655, 0.655172)
New "Loadshape.MT-Tipo02_DO" 24 1 mult=(0.806523, 0.793742, 0.796827, 0.821948, 0.846188, 0.802556, 0.78052, 0.700749, 0.710886, 0.701631, 0.67695, 0.615249, 0.586161, 0.57955, 0.659321, 0.688409, 0.654033, 0.741736, 0.846188, 0.93874, 1.0, 0.979286, 0.947995, 0.940502)
New "Loadshape.MT-Tipo02_DU" 24 1 mult=(0.284922, 0.216743, 0.16997, 0.17108, 0.247186, 0.307119, 0.323847, 0.746314, 1.0, 0.851752, 0.837482, 0.738069, 0.538449, 0.597273, 0.616775, 0.632155, 0.653084, 0.345489, 0.19518, 0.190899, 0.204693, 0.214048, 0.277311, 0.287775)
New "Loadshape.MT-Tipo02_SA" 24 1 mult=(0.566923, 0.591059, 0.616292, 0.592704, 0.617389, 0.650027, 0.636725, 0.834613, 0.886725, 0.899067, 1.0, 0.777564, 0.511245, 0.432803, 0.532639, 0.527427, 0.519473, 0.508228, 0.647285, 0.667032, 0.616292, 0.591882, 0.544981, 0.537301)
New "Loadshape.MT-Tipo03_DO" 24 1 mult=(0.845371, 0.834978, 0.833928, 0.806425, 0.832249, 0.806739, 0.808524, 0.835608, 0.899538, 0.909196, 1.0, 0.989397, 0.986668, 0.975436, 0.965988, 0.923788, 0.892715, 0.852929, 0.913815, 0.938904, 0.929351, 0.883372, 0.837707, 0.812303)
New "Loadshape.MT-Tipo03_DU" 24 1 mult=(0.417369, 0.413073, 0.408454, 0.417155, 0.423385, 0.421935, 0.461491, 0.629572, 0.83114, 0.782534, 1.0, 0.98856, 0.960685, 0.986197, 0.994253, 0.978248, 0.885923, 0.708201, 0.604597, 0.55105, 0.544605, 0.590257, 0.533058, 0.468178)
New "Loadshape.MT-Tipo03_SA" 24 1 mult=(0.770656, 0.763258, 0.75695, 0.739896, 0.757106, 0.75991, 0.749435, 0.842302, 0.941204, 0.904408, 0.991589, 1.0, 0.963788, 0.972744, 0.967214, 0.960906, 0.902422, 0.823456, 0.868624, 0.85593, 0.826649, 0.806479, 0.763648, 0.709836)
New "Loadshape.MT-Tipo04_DO" 24 1 mult=(0.972353, 0.971036, 0.984202, 1.0, 0.983825, 0.958435, 0.905868, 0.757006, 0.764717, 0.716005, 0.631559, 0.580214, 0.52586, 0.558962, 0.544668, 0.605793, 0.63344, 0.643408, 0.737822, 0.766598, 0.800263, 0.871168, 0.893737, 0.869287)
New "Loadshape.MT-Tipo04_DU" 24 1 mult=(0.998699, 1.0, 0.973646, 0.968765, 0.906621, 0.855214, 0.857654, 0.752562, 0.742639, 0.698796, 0.583374, 0.539287, 0.548886, 0.584838, 0.625671, 0.638523, 0.663576, 0.523019, 0.466894, 0.455995, 0.498617, 0.839597, 0.863023, 0.896698)
New "Loadshape.MT-Tipo04_SA" 24 1 mult=(0.961765, 0.966912, 0.960846, 0.97886, 1.0, 0.958824, 0.934099, 0.899449, 0.829779, 0.835202, 0.748897, 0.709559, 0.683088, 0.681066, 0.708088, 0.684559, 0.719301, 0.761949, 0.791544, 0.819118, 0.824081, 0.9, 0.935662, 0.96875)
New "Loadshape.MT-Tipo05_DO" 24 1 mult=(0.851955, 0.839851, 0.785847, 0.756983, 0.773743, 0.734637, 0.56797, 0.193669, 0.217877, 0.231378, 0.243017, 0.27095, 0.283985, 0.267225, 0.386406, 0.527002, 0.638734, 0.788641, 0.953445, 1.0, 0.992551, 0.967412, 0.887337, 0.831471)
New "Loadshape.MT-Tipo05_DU" 24 1 mult=(0.51834, 0.4889, 0.456081, 0.478764, 0.461873, 0.438707, 0.327703, 0.183398, 0.244208, 0.232625, 0.224421, 0.230695, 0.236969, 0.277992, 0.312259, 0.391409, 0.602799, 0.754344, 1.0, 0.993243, 0.944498, 0.810328, 0.661197, 0.567085)
New "Loadshape.MT-Tipo05_SA" 24 1 mult=(0.752301, 0.773222, 0.779079, 0.78159, 0.78159, 0.72887, 0.623013, 0.269456, 0.237657, 0.289958, 0.323013, 0.276987, 0.242678, 0.306276, 0.414226, 0.424268, 0.459414, 0.647699, 1.0, 0.90795, 0.955649, 0.9841, 0.922176, 0.824268)
New "Loadshape.MT-Tipo06_DO" 24 1 mult=(0.96045, 0.928506, 0.92516, 0.927289, 0.910861, 0.897171, 0.865075, 0.835412, 0.848494, 0.849559, 0.898996, 0.903255, 0.894433, 0.90934, 0.916033, 0.892303, 0.894433, 0.896866, 0.950411, 0.988439, 1.0, 0.982659, 0.965014, 0.972011)
New "Loadshape.MT-Tipo06_DU" 24 1 mult=(0.141642, 0.145753, 0.141999, 0.141391, 0.13753, 0.149364, 0.1785, 0.483555, 0.810382, 0.7182, 1.0, 0.966037, 0.858609, 0.907515, 0.96904, 0.933326, 0.836086, 0.515122, 0.252467, 0.176927, 0.1573, 0.151687, 0.138996, 0.135135)
New "Loadshape.MT-Tipo06_SA" 24 1 mult=(0.550211, 0.54837, 0.526487, 0.515654, 0.505904, 0.487921, 0.511808, 0.685191, 0.916802, 0.837179, 1.0, 0.943451, 0.779222, 0.741848, 0.719099, 0.691258, 0.614451, 0.556061, 0.568844, 0.565161, 0.559744, 0.519445, 0.510562, 0.518687)
New "Loadshape.RES-Tipo01_DO" 24 1 mult=(0.844762, 0.831011, 0.81138, 0.806495, 0.811833, 0.8093, 0.822824, 0.923919, 0.950244, 0.949928, 0.986068, 1.0, 0.988963, 0.970237, 0.944726, 0.955853, 0.949159, 0.934956, 0.929437, 0.924643, 0.916953, 0.920029, 0.885924, 0.871359)
New "Loadshape.RES-Tipo01_DU" 24 1 mult=(0.728244, 0.721943, 0.714924, 0.716758, 0.7229, 0.720188, 0.749222, 0.869426, 0.931323, 0.914134, 1.0, 0.998245, 0.986201, 0.979979, 0.980936, 0.964665, 0.971524, 0.943128, 0.888011, 0.859695, 0.837202, 0.827072, 0.770599, 0.748903)
New "Loadshape.RES-Tipo01_SA" 24 1 mult=(0.854652, 0.854744, 0.855478, 0.840521, 0.859057, 0.839053, 0.867728, 0.939897, 0.966966, 0.964948, 1.0, 0.986695, 0.999633, 0.991191, 0.968802, 0.979538, 0.992751, 0.983575, 0.977244, 0.965223, 0.947146, 0.90613, 0.849605, 0.834282)
New "Loadshape.RES-Tipo02_DO" 24 1 mult=(0.781694, 0.741068, 0.808818, 0.699367, 0.654797, 0.645119, 0.650675, 0.629227, 0.592424, 0.595053, 0.489067, 0.672362, 0.622297, 0.598757, 0.594336, 0.572231, 0.599116, 0.671765, 0.72661, 0.859242, 0.816585, 1.0, 0.931175, 0.863544)
New "Loadshape.RES-Tipo02_DU" 24 1 mult=(0.69759, 0.610153, 0.50481, 0.468997, 0.445471, 0.496047, 0.45271, 0.674255, 0.617773, 0.633632, 0.614535, 0.608344, 0.573102, 0.821316, 0.895419, 0.764644, 0.924469, 0.942185, 0.929517, 0.977903, 1.0, 0.971902, 0.983427, 0.933136)
New "Loadshape.RES-Tipo02_SA" 24 1 mult=(0.879405, 0.793617, 0.5626, 0.484738, 0.521688, 0.529935, 0.497804, 0.524365, 0.55189, 0.559334, 0.428832, 0.613259, 0.564314, 0.546964, 0.57331, 0.691014, 0.60105, 0.618828, 0.823391, 0.844168, 0.735033, 1.0, 0.904252, 0.806148)
New "Loadshape.RES-Tipo03_DO" 24 1 mult=(0.83604, 0.835668, 0.800645, 0.761344, 0.728366, 0.688197, 0.658877, 0.530126, 0.501798, 0.520766, 0.468386, 0.448302, 0.454624, 0.480288, 0.521634, 0.568063, 0.536883, 0.54333, 0.561927, 0.637491, 0.778019, 0.862881, 0.966092, 1.0)
New "Loadshape.RES-Tipo03_DU" 24 1 mult=(0.98946, 1.0, 0.978864, 0.930898, 0.863375, 0.764457, 0.702542, 0.479315, 0.423289, 0.429236, 0.377522, 0.378311, 0.390204, 0.416018, 0.402773, 0.38671, 0.376902, 0.357908, 0.524067, 0.596832, 0.678108, 0.82285, 0.893304, 0.927517)
New "Loadshape.RES-Tipo03_SA" 24 1 mult=(1.0, 0.98614, 0.928631, 0.901393, 0.849055, 0.781409, 0.754792, 0.617984, 0.519239, 0.541925, 0.47621, 0.500483, 0.551027, 0.569852, 0.596883, 0.563095, 0.580816, 0.588057, 0.695145, 0.682113, 0.695008, 0.749069, 0.760378, 0.850917)
New "Loadshape.RES-Tipo04_DO" 24 1 mult=(0.984108, 0.907131, 0.915322, 0.878403, 0.863733, 0.876365, 0.856255, 0.787449, 0.812918, 0.798696, 0.880481, 0.893969, 0.93912, 0.962225, 0.924368, 0.887653, 0.89401, 0.920701, 0.977221, 0.945518, 1.0, 0.99784, 0.968867, 0.984841)
New "Loadshape.RES-Tipo04_DU" 24 1 mult=(1.0, 0.984098, 0.984911, 0.932121, 0.912112, 0.869611, 0.900927, 0.828046, 0.802709, 0.832845, 0.831707, 0.878355, 0.843867, 0.851513, 0.869611, 0.886408, 0.824427, 0.864283, 0.891044, 0.94843, 0.898162, 0.931023, 0.969782, 0.963234)
New "Loadshape.RES-Tipo04_SA" 24 1 mult=(0.888106, 0.895241, 0.870888, 0.848458, 0.823635, 0.842391, 0.834957, 0.827138, 0.83517, 0.823015, 0.807357, 0.871144, 0.889003, 0.914295, 0.901905, 0.887123, 0.880971, 0.909297, 0.916218, 0.952833, 0.966932, 0.93476, 0.956421, 1.0)
New "Loadshape.RES-Tipo05_DO" 24 1 mult=(0.901386, 0.811073, 0.779856, 0.761825, 0.759204, 0.745343, 0.748223, 0.793916, 0.762977, 0.78351, 0.729179, 0.842408, 0.977005, 0.940983, 0.933238, 0.912705, 0.888002, 0.913102, 0.95953, 0.944835, 1.0, 0.9888, 0.989316, 0.951388)
New "Loadshape.RES-Tipo05_DU" 24 1 mult=(0.862292, 0.778473, 0.740989, 0.698131, 0.722616, 0.746259, 0.701135, 0.678177, 0.697218, 0.716451, 0.717523, 0.756306, 0.840195, 0.840687, 0.856671, 0.810405, 0.83338, 0.917972, 0.96761, 1.0, 0.97843, 0.980187, 0.984929, 0.971334)
New "Loadshape.RES-Tipo05_SA" 24 1 mult=(0.888394, 0.817037, 0.810022, 0.765083, 0.754821, 0.771778, 0.76829, 0.807817, 0.772099, 0.775426, 0.785528, 0.848306, 0.870395, 0.979395, 0.97294, 0.916496, 0.920826, 0.948086, 0.997274, 0.989176, 1.0, 0.970295, 0.933574, 0.911004)
New "Loadshape.RUR-Tipo01_DO" 24 1 mult=(0.61046, 0.462124, 0.542948, 0.500158, 0.57401, 0.641521, 0.610301, 0.696672, 0.669731, 0.72504, 0.682726, 0.755626, 0.704913, 0.859588, 0.771474, 0.794612, 0.766403, 0.808875, 0.979398, 1.0, 0.845008, 0.815848, 0.710935, 0.586688)
New "Loadshape.RUR-Tipo01_DU" 24 1 mult=(0.414665, 0.398292, 0.344011, 0.307172, 0.247197, 0.322299, 0.32141, 0.613098, 0.728599, 0.736697, 0.810464, 0.886635, 0.97989, 0.962983, 0.965296, 1.0, 0.859939, 0.691048, 0.642285, 0.592098, 0.448834, 0.330486, 0.264104, 0.26624)
New "Loadshape.RUR-Tipo01_SA" 24 1 mult=(0.511487, 0.512763, 0.489151, 0.44799, 0.482451, 0.451181, 0.534142, 0.710274, 0.852904, 0.773612, 0.784939, 0.821953, 0.901085, 0.967135, 1.0, 0.70134, 0.739311, 0.744097, 0.746011, 0.765156, 0.841736, 0.810147, 0.819719, 0.614231)
New "Loadshape.RUR-Tipo02_DO" 24 1 mult=(0.855854, 0.846327, 0.854851, 0.856104, 0.843319, 0.840562, 0.833918, 0.753071, 0.845826, 0.812108, 0.894209, 0.882176, 0.918526, 0.881925, 0.9273, 0.900727, 0.930058, 0.869892, 1.0, 0.987466, 0.936576, 0.924292, 0.878917, 0.875658)
New "Loadshape.RUR-Tipo02_DU" 24 1 mult=(0.763302, 0.76902, 0.72004, 0.773496, 0.817006, 0.816509, 0.794505, 0.792392, 0.84361, 0.826952, 0.887867, 0.96544, 0.957484, 0.950522, 0.958478, 0.971407, 0.936847, 0.933615, 0.940328, 1.0, 0.955246, 0.915714, 0.878419, 0.859025)
New "Loadshape.RUR-Tipo02_SA" 24 1 mult=(0.917485, 0.881136, 0.869727, 0.87238, 0.89679, 0.894667, 0.873309, 0.837357, 0.850093, 0.85394, 0.877421, 0.951977, 0.977713, 0.978774, 0.936057, 0.931282, 0.950915, 0.916158, 0.997347, 1.0, 0.965243, 0.923587, 0.885381, 0.830724)
New "Loadshape.RUR-Tipo03_DO" 24 1 mult=(0.967967, 0.9039, 0.862117, 0.852368, 0.805014, 0.831476, 0.83078, 0.828691, 0.731198, 0.733983, 0.731198, 0.767409, 0.62117, 0.788301, 0.720056, 0.78273, 0.699164, 0.877437, 0.965181, 0.931755, 0.906685, 0.846797, 0.889972, 1.0)
New "Loadshape.RUR-Tipo03_DU" 24 1 mult=(1.0, 0.959784, 0.890688, 0.947908, 0.891768, 0.898246, 0.893657, 0.74278, 0.82807, 0.748718, 0.85803, 0.944939, 0.919568, 0.804588, 0.961943, 0.798111, 0.497706, 0.14251, 0.039676, 0.043185, 0.036977, 0.034008, 0.037787, 0.044265)
New "Loadshape.RUR-Tipo03_SA" 24 1 mult=(0.718513, 0.800794, 0.744136, 0.629376, 0.669433, 0.740166, 0.684049, 0.714904, 0.860339, 0.826416, 1.0, 0.986287, 0.862144, 0.916637, 0.908697, 0.826056, 0.844821, 0.777698, 0.859978, 0.938289, 0.895706, 0.818116, 0.774089, 0.879105)
New "Loadshape.RUR-Tipo04_DO" 24 1 mult=(0.962005, 0.964953, 0.98002, 0.94792, 0.931215, 0.857517, 0.799869, 0.63413, 0.525057, 0.577465, 0.553226, 0.63282, 0.655421, 0.722568, 0.672781, 0.638061, 0.593515, 0.573862, 0.833279, 0.917131, 0.984278, 1.0, 0.925647, 0.919424)
New "Loadshape.RUR-Tipo04_DU" 24 1 mult=(0.908431, 0.891401, 0.866276, 0.850363, 0.849805, 0.774986, 0.692769, 0.472083, 0.417644, 0.433277, 0.44249, 0.405639, 0.418202, 0.434673, 0.413735, 0.364322, 0.397543, 0.480737, 0.819095, 0.896427, 0.959799, 0.990787, 1.0, 0.965103)
New "Loadshape.RUR-Tipo04_SA" 24 1 mult=(0.905988, 0.884163, 0.86178, 0.842753, 0.81897, 0.738388, 0.712787, 0.502798, 0.543089, 0.517348, 0.557359, 0.582261, 0.622272, 0.674314, 0.595691, 0.589815, 0.588137, 0.675154, 0.881365, 0.970901, 0.989927, 1.0, 0.974538, 0.963067)
New "Loadshape.RUR-Tipo05_DO" 24 1 mult=(0.757943, 0.723662, 0.752508, 0.762542, 0.798913, 0.798495, 0.728679, 0.615803, 0.586538, 0.601589, 0.754181, 0.845318, 0.777592, 0.751254, 0.649247, 0.680602, 0.670987, 0.712793, 0.935201, 1.0, 0.921405, 0.839047, 0.816472, 0.829431)
New "Loadshape.RUR-Tipo05_DU" 24 1 mult=(0.650577, 0.5097, 0.522171, 0.526097, 0.535797, 0.625404, 0.576443, 0.458661, 0.635104, 0.459469, 0.586374, 0.671132, 0.535797, 1.0, 0.967436, 0.599076, 0.526097, 0.495381, 0.590069, 0.742494, 0.98291, 0.926097, 0.828868, 0.796767)
New "Loadshape.RUR-Tipo05_SA" 24 1 mult=(0.798352, 0.834885, 0.809456, 0.900072, 0.870344, 0.75, 0.793159, 0.832378, 0.972779, 0.836676, 0.809814, 0.659026, 0.522564, 0.903653, 0.796203, 0.745344, 0.664398, 0.642908, 0.823782, 0.789756, 0.830229, 0.883596, 0.931232, 1.0)
New "Loadshape.SP-Tipo01_DO" 24 1 mult=(0.842053, 0.76999, 0.759131, 0.759625, 0.774926, 0.741856, 0.737414, 0.683613, 0.727542, 0.700642, 0.817374, 0.885982, 0.873643, 0.917078, 0.902764, 0.920533, 0.837117, 0.854886, 0.980257, 1.0, 0.938302, 0.924482, 0.830701, 0.804541)
New "Loadshape.SP-Tipo01_DU" 24 1 mult=(0.764219, 0.746639, 0.741468, 0.727508, 0.755946, 0.707859, 0.701138, 0.63909, 0.722854, 0.69364, 0.75181, 0.738883, 0.814374, 0.772492, 0.829886, 0.897622, 0.847466, 0.799897, 0.947777, 1.0, 0.957601, 0.840745, 0.820062, 0.706308)
New "Loadshape.SP-Tipo01_SA" 24 1 mult=(0.794938, 0.762913, 0.749483, 0.740186, 0.800103, 0.716942, 0.803461, 0.744318, 0.773244, 0.757748, 0.809401, 0.817665, 0.816632, 0.855888, 0.903926, 0.839876, 0.79907, 0.749483, 0.93905, 1.0, 0.927169, 0.878099, 0.813017, 0.784607)
New "Loadshape.SP-Tipo02_DO" 24 1 mult=(0.768409, 0.739905, 0.714964, 0.66152, 0.648456, 0.675772, 0.679929, 0.786223, 0.805226, 0.801663, 0.85867, 0.937055, 0.909739, 0.971496, 1.0, 0.984561, 0.944181, 0.929929, 0.844418, 0.825416, 0.805226, 0.80285, 0.805226, 0.781473)
New "Loadshape.SP-Tipo02_DU" 24 1 mult=(0.210769, 0.189231, 0.187692, 0.176154, 0.173077, 0.169231, 0.215385, 0.447692, 0.595385, 0.565, 0.782308, 0.9, 0.861538, 0.96, 1.0, 0.920769, 0.857692, 0.582308, 0.570769, 0.493846, 0.439231, 0.352308, 0.326154, 0.286154)
New "Loadshape.SP-Tipo02_SA" 24 1 mult=(0.647186, 0.616883, 0.62013, 0.569264, 0.536797, 0.502165, 0.574675, 0.637446, 0.819264, 0.752706, 0.962121, 0.91342, 0.92316, 1.0, 0.972944, 0.893939, 0.859307, 0.75974, 0.709957, 0.665584, 0.656926, 0.590909, 0.604978, 0.57684)
New "Loadshape.SP-Tipo03_DO" 24 1 mult=(0.898551, 0.876812, 0.884058, 0.876812, 0.847826, 0.811594, 0.757246, 0.688406, 0.724638, 0.713768, 0.789855, 0.847826, 0.884058, 1.0, 0.992754, 0.942029, 0.833333, 0.84058, 0.942029, 0.913043, 0.927536, 0.956522, 0.985507, 0.956522)
New "Loadshape.SP-Tipo03_DU" 24 1 mult=(0.707317, 0.702439, 0.721951, 0.682927, 0.702439, 0.619512, 0.631707, 0.57561, 0.717073, 0.697561, 0.917073, 0.931707, 0.960976, 1.0, 0.95122, 0.834146, 0.712195, 0.673171, 0.717073, 0.741463, 0.736585, 0.673171, 0.658537, 0.658537)
New "Loadshape.SP-Tipo03_SA" 24 1 mult=(1.0, 0.953488, 0.844961, 0.829457, 0.837209, 0.767442, 0.751938, 0.697674, 0.689922, 0.713178, 0.821705, 0.875969, 0.875969, 0.868217, 0.844961, 0.937984, 0.906977, 0.837209, 0.891473, 0.930233, 0.968992, 1.0, 0.953488, 0.976744)
New "Loadshape.SP-Tipo04_DO" 24 1 mult=(0.850829, 0.828729, 0.823204, 0.845304, 0.823204, 0.828729, 0.80663, 0.78453, 0.889503, 0.856354, 0.966851, 0.977901, 0.961326, 1.0, 0.983425, 0.889503, 0.889503, 0.850829, 0.961326, 0.994475, 0.977901, 0.994475, 0.972376, 0.900552)
New "Loadshape.SP-Tipo04_DU" 24 1 mult=(0.168317, 0.166337, 0.164356, 0.167327, 0.188119, 0.215842, 0.241584, 0.663366, 0.910891, 0.822772, 1.0, 0.940594, 0.90495, 0.943564, 0.975248, 0.90495, 0.717822, 0.417822, 0.320792, 0.278218, 0.233663, 0.237624, 0.216832, 0.192079)
New "Loadshape.SP-Tipo04_SA" 24 1 mult=(0.86911, 0.858639, 0.853403, 0.86911, 0.874346, 0.853403, 0.840314, 0.837696, 0.921466, 0.895288, 0.979058, 0.984293, 1.0, 1.0, 0.979058, 0.937173, 0.874346, 0.816754, 0.879581, 0.931937, 0.926702, 0.973822, 0.921466, 0.827225)
