New "Line.RBT_CL4057766" phases=2 bus1="3792397238471091.1.4" bus2="282686637.1.4" linecode="6771582_2" length=0.02860 units=km
New "Line.RBT_CL4599937" phases=2 bus1="3815317638434967FL.2.4" bus2="212615004.2.4" linecode="6771583_2" length=0.03000 units=km
New "Line.RBT_CL4651342" phases=2 bus1="3815317638434967FL.2.4" bus2="212503576.2.4" linecode="6771583_2" length=0.02650 units=km
New "Line.RBT_CL4715712" phases=2 bus1="3815317638434967FL.2.4" bus2="212534570.2.4" linecode="6796774_2" length=0.03000 units=km
New "Line.RBT_CL4750643" phases=2 bus1="3815317638434967FL.2.4" bus2="212623872.2.4" linecode="6796775_1_2" length=0.02860 units=km
New "Line.RBT_CL4795350" phases=2 bus1="3815317638434967FL.2.4" bus2="212511700.2.4" linecode="6796775_1_2" length=0.03000 units=km
New "Line.RBT_CL5273917" phases=2 bus1="3815317638434967FL.2.4" bus2="212682396.2.4" linecode="6771583_2" length=0.00600 units=km
New "Line.RBT_CL5336581" phases=2 bus1="3815317638434967FL.2.4" bus2="212716180.2.4" linecode="6771583_2" length=0.00600 units=km
New "Line.RBT_CL5503482" phases=2 bus1="3815317638434967FL.2.4" bus2="212725072.2.4" linecode="6796774_2" length=0.03000 units=km
New "Line.RBT_CL5935571" phases=2 bus1="3815317638434967FL.2.4" bus2="212935166.2.4" linecode="6796775_1_2" length=0.00600 units=km
New "Line.RBT_CL6008616" phases=2 bus1="3815317638434967FL.2.4" bus2="212256030.2.4" linecode="6796774_2" length=0.00600 units=km
New "Line.RBT_CL6306513" phases=2 bus1="3792128838470191.1.4" bus2="282686652.1.4" linecode="6771582_2" length=0.00600 units=km
New "Line.RBT_CL6647259" phases=2 bus1="3815317638434967FL.2.4" bus2="213631466.2.4" linecode="6771584_1_2" length=0.00600 units=km
New "Line.RBT_CL6647260" phases=2 bus1="3815317638434967FL.2.4" bus2="213631474.2.4" linecode="6771583_2" length=0.00600 units=km
New "Line.RBT_UC0766944" phases=4 bus1="3791630438470781.1.2.3.4" bus2="101751372.1.2.3.4" linecode="6771584_4" length=0.00600 units=km
New "Line.RBT_UC0767042" phases=4 bus1="3791778638472605.1.2.3.4" bus2="101752107.1.2.3.4" linecode="6796775_4" length=0.00600 units=km
New "Line.RBT_UC0767072" phases=4 bus1="3792854838472513.1.2.3.4" bus2="101752382.1.2.3.4" linecode="6796775_4" length=0.00600 units=km
New "Line.RBT_UC0767090" phases=4 bus1="3792410038471785.1.2.3.4" bus2="101752536.1.2.3.4" linecode="6771584_4" length=0.00600 units=km
New "Line.RBT_UC0767091" phases=4 bus1="3792494438472129.1.2.3.4" bus2="101752547.1.2.3.4" linecode="6796775_4" length=0.00600 units=km
New "Line.RBT_UC0767094" phases=4 bus1="3792494638472538.1.2.3.4" bus2="101752580.1.2.3.4" linecode="6771584_4" length=0.00600 units=km
New "Line.RBT_UC0767095" phases=2 bus1="3792421638471496.1.4" bus2="101752591.1.4" linecode="4544169_2" length=0.00600 units=km
New "Line.RBT_UC0767096" phases=4 bus1="3792421638471496.1.2.3.4" bus2="101752602.1.2.3.4" linecode="4544169_3_4" length=0.03000 units=km
New "Line.RBT_UC0767100" phases=4 bus1="3792360738470716.1.2.3.4" bus2="101752624.1.2.3.4" linecode="6796775_4" length=0.03000 units=km
New "Line.RBT_UC0850069" phases=4 bus1="3822705538452920.1.2.3.4" bus2="102336418.1.2.3.4" linecode="6796775_4" length=0.00600 units=km
New "Line.RBT_UC0858668" phases=4 bus1="3792397238471091.1.2.3.4" bus2="102395338.1.2.3.4" linecode="6771584_4" length=0.00600 units=km
New "Line.RBT_UC0893187" phases=4 bus1="3793211338472494.1.2.3.4" bus2="102632131.1.2.3.4" linecode="6796775_4" length=0.00600 units=km
New "Line.RBT_UC0898144" phases=4 bus1="3806409238471820.1.2.3.4" bus2="102658736.1.2.3.4" linecode="4544169_3_4" length=0.00600 units=km
New "Line.RBT_UC1014474" phases=4 bus1="3792397238471091.1.2.3.4" bus2="103401702.1.2.3.4" linecode="6771584_4" length=0.00600 units=km
New "Line.RBT_UC1020466" phases=2 bus1="3821211738452153.2.4" bus2="103437699.2.4" linecode="6771582_2" length=0.00600 units=km
New "Line.RBT_UC1051881" phases=4 bus1="3792360738470716.1.2.3.4" bus2="103621197.1.2.3.4" linecode="4544169_3_4" length=0.03000 units=km
New "Line.RBT_UC1072250" phases=4 bus1="3806409238471820.1.2.3.4" bus2="103743481.1.2.3.4" linecode="6796775_4" length=0.03000 units=km
New "Line.RBT_UC1141226" phases=2 bus1="3823170038453457.2.4" bus2="104101906.2.4" linecode="4544169_2" length=0.00600 units=km
New "Line.RBT_UC1351968" phases=4 bus1="3791778638472605.1.2.3.4" bus2="105201771.1.2.3.4" linecode="6796775_4" length=0.00600 units=km
New "Line.RBT_UC1399507" phases=4 bus1="3793211338472494.1.2.3.4" bus2="105445299.1.2.3.4" linecode="6796775_4" length=0.00600 units=km
New "Line.RBT_UC1443381" phases=4 bus1="3793211338472494.1.2.3.4" bus2="105684550.1.2.3.4" linecode="6796775_4" length=0.00600 units=km
New "Line.RBT_UC1624524" phases=2 bus1="3792128838470191.2.4" bus2="106568231.2.4" linecode="4544169_2" length=0.00600 units=km
New "Line.RBT_UC1634102" phases=4 bus1="3808401538471181.1.2.3.4" bus2="106614345.1.2.3.4" linecode="6796775_4" length=0.00600 units=km
New "Line.RBT_UC1712217" phases=4 bus1="3792309238470165.1.2.3.4" bus2="107002944.1.2.3.4" linecode="6796775_4" length=0.00600 units=km
New "Line.RBT_UC1790963" phases=2 bus1="3821211738452153.2.4" bus2="107407188.2.4" linecode="6796774_2" length=0.03000 units=km
New "Line.RBT_UC1835525" phases=4 bus1="3792156538472566.1.2.3.4" bus2="106910410.1.2.3.4" linecode="6796775_4" length=0.00600 units=km
New "Line.RBT_UC2041751" phases=4 bus1="3792156538472566.1.2.3.4" bus2="107928244.1.2.3.4" linecode="6796775_4" length=0.00600 units=km
New "Line.RBT_UC2058618" phases=4 bus1="3806444238471341.1.2.3.4" bus2="108004008.1.2.3.4" linecode="6771584_4" length=0.00600 units=km
New "Line.RBT_UC2082014" phases=2 bus1="3793576138472451FL.1.4" bus2="108101325.1.4" linecode="6771582_2" length=0.01530 units=km
New "Line.RBT_UC2181886" phases=4 bus1="3806075538471355.1.2.3.4" bus2="108558901.1.2.3.4" linecode="6796775_4" length=0.02550 units=km
New "Line.RBT_UC2211022" phases=2 bus1="3806409238471820.2.4" bus2="108692642.2.4" linecode="6796774_2" length=0.02550 units=km
New "Line.RBT_UC2217013" phases=4 bus1="3791630438470781.1.2.3.4" bus2="108721167.1.2.3.4" linecode="4544169_3_4" length=0.00820 units=km
New "Line.RBT_UC2217015" phases=4 bus1="3791630438470781.1.2.3.4" bus2="108721178.1.2.3.4" linecode="4544169_3_4" length=0.03000 units=km
New "Line.RBT_UC2247010" phases=4 bus1="3805443038471415.1.2.3.4" bus2="108857945.1.2.3.4" linecode="6771584_4" length=0.03000 units=km
New "Line.RBT_UC2257569" phases=4 bus1="3792397238471091.1.2.3.4" bus2="108907411.1.2.3.4" linecode="4544169_3_4" length=0.02040 units=km
New "Line.RBT_UC2269252" phases=4 bus1="3805794538471380.1.2.3.4" bus2="108959698.1.2.3.4" linecode="6796775_4" length=0.01530 units=km
New "Line.RBT_UC2292308" phases=4 bus1="3806075538471355.1.2.3.4" bus2="109066600.1.2.3.4" linecode="6771584_4" length=0.03000 units=km
New "Line.RBT_UC2304172" phases=2 bus1="3806409238471820.2.4" bus2="109124583.2.4" linecode="6771582_2" length=0.03000 units=km
New "Line.RBT_UC2363622" phases=4 bus1="3793576138472451FL.1.2.3.4" bus2="57980514.1.2.3.4" linecode="6796775_4" length=0.02040 units=km
New "Line.RBT_UC2363648" phases=4 bus1="3793576138472451FL.1.2.3.4" bus2="57980617.1.2.3.4" linecode="6771584_4" length=0.02040 units=km
New "Line.RBT_UC2406040" phases=4 bus1="3792397238471091.1.2.3.4" bus2="109616009.1.2.3.4" linecode="4544169_3_4" length=0.03000 units=km
New "Line.RBT_UC2410801" phases=2 bus1="3806409238471820.2.4" bus2="109631934.2.4" linecode="6771582_2" length=0.02450 units=km
New "Line.RBT_UC2411207" phases=2 bus1="3792397238471091.2.4" bus2="109633728.2.4" linecode="6771582_2" length=0.03000 units=km
New "Line.RBT_UC2421810" phases=4 bus1="3805443038471415.1.2.3.4" bus2="109685194.1.2.3.4" linecode="6796775_4" length=0.03000 units=km
New "Line.RBT_UC2440915" phases=2 bus1="3805443038471415.1.4" bus2="109769545.1.4" linecode="6771582_2" length=0.00600 units=km
New "Line.RBT_UC2440917" phases=2 bus1="3805443038471415.3.4" bus2="109769567.3.4" linecode="6771582_2" length=0.02450 units=km
New "Line.RBT_UC2440922" phases=2 bus1="3805443038471415.2.4" bus2="109769578.2.4" linecode="6771582_2" length=0.00600 units=km
New "Line.RBT_UC2440925" phases=2 bus1="3805443038471415.2.4" bus2="109769589.2.4" linecode="6796774_2" length=0.00600 units=km
New "Line.RBT_UC2440930" phases=4 bus1="3805443038471415.1.2.3.4" bus2="109769644.1.2.3.4" linecode="6796775_4" length=0.00600 units=km
New "Line.RBT_UC2440931" phases=4 bus1="3805443038471415.1.2.3.4" bus2="109769655.1.2.3.4" linecode="6796775_4" length=0.00600 units=km
New "Line.RBT_UC2444634" phases=4 bus1="3814752338433563.1.2.3.4" bus2="109785524.1.2.3.4" linecode="6796775_4" length=0.03000 units=km
New "Line.RBT_UC2478826" phases=2 bus1="3805443038471415.2.4" bus2="109969988.2.4" linecode="6771582_2" length=0.03000 units=km
New "Line.RBT_UC2504759" phases=4 bus1="3805443038471415.1.2.3.4" bus2="110082361.1.2.3.4" linecode="6771584_4" length=0.03000 units=km
New "Line.RBT_UC2523105" phases=2 bus1="3815044938432053.2.4" bus2="110168370.2.4" linecode="6771582_2" length=0.01220 units=km
New "Line.RBT_UC2529089" phases=2 bus1="3808714638471151FL.1.4" bus2="110194709.1.4" linecode="6771582_2" length=0.01020 units=km
New "Line.RBT_UC2545306" phases=4 bus1="3806075538471355.1.2.3.4" bus2="110274266.1.2.3.4" linecode="6796775_4" length=0.03000 units=km
New "Line.RBT_UC2550212" phases=4 bus1="3792546838472691.1.2.3.4" bus2="110296627.1.2.3.4" linecode="4544169_3_4" length=0.03000 units=km
New "Line.RBT_UC2594522" phases=4 bus1="3822377138452745.1.2.3.4" bus2="110471426.1.2.3.4" linecode="6796775_4" length=0.02040 units=km
New "Line.RBT_UC2594525" phases=4 bus1="3822377138452745.1.2.3.4" bus2="110471437.1.2.3.4" linecode="6796775_4" length=0.02040 units=km
New "Line.RBT_UC2594528" phases=2 bus1="3822699138452932FL.2.4" bus2="189713781.2.4" linecode="6771583_2" length=0.02040 units=km
New "Line.RBT_UC2639787" phases=2 bus1="3792397238471091.3.4" bus2="280490130.3.4" linecode="6771582_2" length=0.00600 units=km
New "Line.RBT_UC2718342" phases=2 bus1="3805794538471380.1.4" bus2="110953925.1.4" linecode="6771582_2" length=0.00600 units=km
New "Line.RBT_UC2767748" phases=2 bus1="3823170038453457.2.4" bus2="256222262.2.4" linecode="6771582_2" length=0.03000 units=km
New "Line.RBT_UC2774655" phases=2 bus1="3806075538471355.2.4" bus2="111174268.2.4" linecode="6771582_2" length=0.01530 units=km
New "Line.RBT_UC2792853" phases=2 bus1="3822904338453062.2.4" bus2="256222322.2.4" linecode="6771582_2" length=0.03000 units=km
New "Line.RBT_UC2848817" phases=2 bus1="3823170038453457.2.4" bus2="256222337.2.4" linecode="6796775_1_2" length=0.00600 units=km
New "Line.RBT_UC2928865" phases=2 bus1="3823170038453457.2.4" bus2="256222412.2.4" linecode="6771582_2" length=0.03000 units=km
New "Line.RBT_UC3179409" phases=2 bus1="3793211338472494.3.4" bus2="124722315.3.4" linecode="6771582_2" length=0.01840 units=km
New "Line.RBT_UC3182650" phases=2 bus1="3823170038453457.2.4" bus2="256222544.2.4" linecode="6771582_2" length=0.03000 units=km
New "Line.RBT_UC3237989" phases=2 bus1="3814623438434199FL.2.4" bus2="279398648.2.4" linecode="6771582_2" length=0.00600 units=km
New "Line.RBT_UC3291279" phases=2 bus1="3792360738470716.2.4" bus2="283835807.2.4" linecode="6771582_2" length=0.02650 units=km
New "Line.RBT_UC3321727" phases=2 bus1="3791630438470781.2.4" bus2="283835837.2.4" linecode="6771582_2" length=0.00600 units=km
New "Line.RBT_UC3361745" phases=2 bus1="3791778638472605.1.4" bus2="114139905.1.4" linecode="6771582_2" length=0.02550 units=km
New "Line.RBT_UC3391875" phases=4 bus1="3808401538471181.1.2.3.4" bus2="117177175.1.2.3.4" linecode="6771584_4" length=0.00600 units=km
New "Line.RBT_UC3504898" phases=2 bus1="3807064438471291.2.4" bus2="145910753.2.4" linecode="4544169_2" length=0.00600 units=km
New "Line.RBT_UC3516432" phases=2 bus1="3792360738470716.3.4" bus2="145912809.3.4" linecode="6771583_2" length=0.03000 units=km
New "Line.RBT_UC3556363" phases=4 bus1="3815687238435040FL.1.2.3.4" bus2="116485163.1.2.3.4" linecode="4544169_3_4" length=0.03000 units=km
New "Line.RBT_UC3561006" phases=2 bus1="3792309238470165.1.4" bus2="142328458.1.4" linecode="6771582_2" length=0.02650 units=km
New "Line.RBT_UC3575787" phases=4 bus1="3807064438471291.1.2.3.4" bus2="145103190.1.2.3.4" linecode="6771584_4" length=0.00600 units=km
New "Line.RBT_UC3746984" phases=2 bus1="3792072938471806.1.4" bus2="114425153.1.4" linecode="6771582_2" length=0.03000 units=km
New "Line.RBT_UC3755183" phases=2 bus1="3792128838470191.1.4" bus2="120965752.1.4" linecode="6771582_2" length=0.03000 units=km
New "Line.RBT_UC3775004" phases=4 bus1="3814653638434176.1.2.3.4" bus2="151577376.1.2.3.4" linecode="6771584_4" length=0.02140 units=km
New "Line.RBT_UC3789906" phases=2 bus1="3791401938471070.2.4" bus2="142487611.2.4" linecode="6796774_2" length=0.01530 units=km
New "Line.RBT_UC3896196" phases=4 bus1="3792339438470362.1.2.3.4" bus2="159411796.1.2.3.4" linecode="6771584_4" length=0.02350 units=km
New "Line.RBT_UC4017466" phases=2 bus1="3822904338453062.2.4" bus2="256381523.2.4" linecode="6771582_2" length=0.03000 units=km
New "Line.RBT_UC4051166" phases=2 bus1="17115122TR.3.4" bus2="256937918.3.4" linecode="6771582_2" length=0.03000 units=km
New "Line.RBT_UC4168061" phases=2 bus1="17115122TR.3.4" bus2="256939805.3.4" linecode="6771582_2" length=0.03000 units=km
New "Line.RBT_UC4207438" phases=2 bus1="3821665838452114FL.2.4" bus2="263878962.2.4" linecode="6796775_1_2" length=0.00600 units=km
New "Line.RBT_UC4242941" phases=2 bus1="17115122TR.3.4" bus2="260061183.3.4" linecode="6771582_2" length=0.03000 units=km
New "Line.RBT_UC4269800" phases=2 bus1="17115122TR.3.4" bus2="260061495.3.4" linecode="6771582_2" length=0.03000 units=km
New "Line.RBT_UC4281661" phases=2 bus1="17115122TR.3.4" bus2="260061807.3.4" linecode="6771582_2" length=0.03000 units=km
New "Line.RBT_UC4298033" phases=2 bus1="3822377138452745.2.4" bus2="156398376.2.4" linecode="6771582_2" length=0.02550 units=km
New "Line.RBT_UC4307966" phases=2 bus1="3814463838435101.2.4" bus2="159336060.2.4" linecode="6796774_2" length=0.00600 units=km
New "Line.RBT_UC4326584" phases=2 bus1="3791888038470482.1.4" bus2="159880571.1.4" linecode="6771582_2" length=0.03000 units=km
New "Line.RBT_UC4401363" phases=2 bus1="17115122TR.3.4" bus2="260298673.3.4" linecode="6771582_2" length=0.03000 units=km
New "Line.RBT_UC4456043" phases=2 bus1="17115122TR.3.4" bus2="260298985.3.4" linecode="6771582_2" length=0.03000 units=km
New "Line.RBT_UC4457276" phases=2 bus1="17115122TR.3.4" bus2="260299297.3.4" linecode="6771582_2" length=0.03000 units=km
New "Line.RBT_UC4485538" phases=2 bus1="3792034938471605FL.1.4" bus2="159498011.1.4" linecode="6771582_2" length=0.02140 units=km
New "Line.RBT_UC4492065" phases=4 bus1="3814762038433565.1.2.3.4" bus2="189682035.1.2.3.4" linecode="4544169_3_4" length=0.03000 units=km
New "Line.RBT_UC4590979" phases=2 bus1="3814811738433299.2.4" bus2="174425545.2.4" linecode="6771582_2" length=0.01530 units=km
New "Line.RBT_UC4694333" phases=2 bus1="3814254638437245.2.4" bus2="177483898.2.4" linecode="6771582_2" length=0.01020 units=km
New "Line.RBT_UC4709370" phases=4 bus1="3815115938434873.1.2.3.4" bus2="169088068.1.2.3.4" linecode="6771584_4" length=0.03000 units=km
New "Line.RBT_UC4713311" phases=2 bus1="17115122TR.3.4" bus2="260300545.3.4" linecode="6771582_2" length=0.03000 units=km
New "Line.RBT_UC4719383" phases=2 bus1="17115122TR.3.4" bus2="260300857.3.4" linecode="6771582_2" length=0.03000 units=km
New "Line.RBT_UC4808287" phases=4 bus1="3814254638437245.1.2.3.4" bus2="173113650.1.2.3.4" linecode="6796775_4" length=0.03000 units=km
New "Line.RBT_UC4881427" phases=2 bus1="17115122TR.3.4" bus2="260301793.3.4" linecode="6771582_2" length=0.03000 units=km
New "Line.RBT_UC4886312" phases=2 bus1="3792034938471605FL.1.4" bus2="168738824.1.4" linecode="6796774_2" length=0.02040 units=km
New "Line.RBT_UC4998032" phases=4 bus1="3814111438438310.1.2.3.4" bus2="180494253.1.2.3.4" linecode="6796775_4" length=0.03000 units=km
New "Line.RBT_UC5085812" phases=2 bus1="3822705538452920.2.4" bus2="260456145.2.4" linecode="6771582_2" length=0.03000 units=km
New "Line.RBT_UC5088091" phases=2 bus1="17115122TR.3.4" bus2="281210171.3.4" linecode="6771582_2" length=0.03000 units=km
New "Line.RBT_UC5112825" phases=2 bus1="17115122TR.3.4" bus2="260456160.3.4" linecode="6771582_2" length=0.03000 units=km
New "Line.RBT_UC5381548" phases=2 bus1="17115122TR.3.4" bus2="261428638.3.4" linecode="6771582_2" length=0.03000 units=km
New "Line.RBT_UC5396521" phases=2 bus1="3822705538452920.2.4" bus2="261428950.2.4" linecode="6771582_2" length=0.03000 units=km
New "Line.RBT_UC5420258" phases=4 bus1="3814270938436111.1.2.3.4" bus2="163156294.1.2.3.4" linecode="4544169_3_4" length=0.03000 units=km
New "Line.RBT_UC5423893" phases=2 bus1="3814270938436111.2.4" bus2="163156778.2.4" linecode="6771582_2" length=0.03000 units=km
New "Line.RBT_UC5515746" phases=2 bus1="3814451738436657.2.4" bus2="151546765.2.4" linecode="6771582_2" length=0.03000 units=km
New "Line.RBT_UC5701623" phases=2 bus1="3792854138472500FL.1.4" bus2="283835867.1.4" linecode="6771582_2" length=0.02750 units=km
New "Line.RBT_UC5721824" phases=2 bus1="17115122TR.3.4" bus2="261429589.3.4" linecode="6771582_2" length=0.03000 units=km
New "Line.RBT_UC5811985" phases=2 bus1="17115122TR.3.4" bus2="261430213.3.4" linecode="6771582_2" length=0.03000 units=km
New "Line.RBT_UC5888673" phases=2 bus1="17115122TR.3.4" bus2="261430837.3.4" linecode="6771582_2" length=0.03000 units=km
New "Line.RBT_UC5926247" phases=2 bus1="17115122TR.3.4" bus2="261431461.3.4" linecode="6771582_2" length=0.03000 units=km
New "Line.RBT_UC6020549" phases=2 bus1="17115122TR.3.4" bus2="262652540.3.4" linecode="6771582_2" length=0.03000 units=km
New "Line.RBT_UC6021735" phases=2 bus1="3792854138472500FL.1.4" bus2="283835882.1.4" linecode="6771582_2" length=0.00600 units=km
New "Line.RBT_UC6171461" phases=2 bus1="3814065338437030.2.4" bus2="200358434.2.4" linecode="6771582_2" length=0.03000 units=km
New "Line.RBT_UC6211526" phases=2 bus1="3805794538471380.1.4" bus2="200521903.1.4" linecode="6771582_2" length=0.03000 units=km
New "Line.RBT_UC6389842" phases=4 bus1="17115122TR.1.2.3.4" bus2="262652852.1.2.3.4" linecode="6796775_4" length=0.03000 units=km
New "Line.RBT_UC6764631" phases=2 bus1="3792507938472127FL.2.4" bus2="283835912.2.4" linecode="6771582_2" length=0.01220 units=km
New "Line.RBT_UC6856642" phases=2 bus1="17115122TR.3.4" bus2="262653788.3.4" linecode="6771582_2" length=0.03000 units=km
New "Line.RBT_UC6888388" phases=2 bus1="3814356538435715.2.4" bus2="208521812.2.4" linecode="6771582_2" length=0.02450 units=km
New "Line.RBT_UC6890890" phases=4 bus1="3806744638471321.1.2.3.4" bus2="289970560.1.2.3.4" linecode="6796775_4" length=0.03000 units=km
New "Line.RBT_UC7447926" phases=2 bus1="17115122TR.3.4" bus2="262655348.3.4" linecode="6771582_2" length=0.03000 units=km
New "Line.RBT_UC7555144" phases=2 bus1="17115122TR.3.4" bus2="263191019.3.4" linecode="6771582_2" length=0.03000 units=km
New "Line.RBT_UC7567823" phases=2 bus1="17115122TR.3.4" bus2="263191331.3.4" linecode="6771582_2" length=0.03000 units=km
New "Line.RBT_UC760923" phases=2 bus1="3822705538452920.2.4" bus2="282666087.2.4" linecode="6771582_2" length=0.03000 units=km
New "Line.RBT_UC7612529" phases=2 bus1="17115122TR.3.4" bus2="263191643.3.4" linecode="6771582_2" length=0.03000 units=km
New "Line.RBT_UC7715918" phases=2 bus1="17115122TR.3.4" bus2="264561464.3.4" linecode="6771582_2" length=0.03000 units=km
New "Line.RBT_UC7884799" phases=2 bus1="17115122TR.3.4" bus2="265515098.3.4" linecode="6771582_2" length=0.03000 units=km
New "Line.RBT_UC7906858" phases=2 bus1="17115122TR.3.4" bus2="265631611.3.4" linecode="6771582_2" length=0.03000 units=km
New "Line.RBT_UC8055270" phases=2 bus1="17115122TR.3.4" bus2="265632235.3.4" linecode="6771582_2" length=0.03000 units=km
New "Line.RBT_UC8112986" phases=2 bus1="17115122TR.3.4" bus2="265632874.3.4" linecode="6771582_2" length=0.03000 units=km
New "Line.RBT_UC8205349" phases=2 bus1="17115122TR.2.4" bus2="265633186.2.4" linecode="6771582_2" length=0.03000 units=km
New "Line.RBT_UC8263059" phases=2 bus1="17115122TR.3.4" bus2="265633810.3.4" linecode="6771582_2" length=0.03000 units=km
New "Line.RBT_UC8265079" phases=2 bus1="17115122TR.3.4" bus2="265634122.3.4" linecode="6771582_2" length=0.03000 units=km
New "Line.RBT_UC8266590" phases=2 bus1="17115122TR.3.4" bus2="265634434.3.4" linecode="6771582_2" length=0.03000 units=km
New "Line.RBT_UC8296011" phases=2 bus1="17115122TR.3.4" bus2="265634746.3.4" linecode="6771582_2" length=0.03000 units=km
New "Line.RBT_UC8393056" phases=2 bus1="3791758738472586FL.1.4" bus2="289772243.1.4" linecode="6771582_2" length=0.02960 units=km
New "Line.RBT_UC8423492" phases=2 bus1="17115122TR.3.4" bus2="267125797.3.4" linecode="6771582_2" length=0.03000 units=km
New "Line.RBT_UC8467906" phases=2 bus1="3814493938435078.2.4" bus2="259770594.2.4" linecode="6771583_2" length=0.03000 units=km
New "Line.RBT_UC8537501" phases=2 bus1="17115122TR.3.4" bus2="267127045.3.4" linecode="6771582_2" length=0.03000 units=km
New "Line.RBT_UC8634185" phases=2 bus1="17115122TR.3.4" bus2="267127357.3.4" linecode="6771582_2" length=0.03000 units=km
New "Line.RBT_UC8705639" phases=4 bus1="3791888038470482.1.2.3.4" bus2="245638416.1.2.3.4" linecode="6796775_4" length=0.01530 units=km
New "Line.RBT_UC8707133" phases=2 bus1="17115122TR.3.4" bus2="267127669.3.4" linecode="6771582_2" length=0.03000 units=km
New "Line.RBT_UC8720454" phases=2 bus1="17115122TR.3.4" bus2="267127981.3.4" linecode="6771582_2" length=0.03000 units=km
New "Line.RBT_UC8863938" phases=2 bus1="17115122TR.3.4" bus2="267128605.3.4" linecode="6771582_2" length=0.03000 units=km
New "Line.RBT_UC8882676" phases=2 bus1="17115122TR.3.4" bus2="267129229.3.4" linecode="6771582_2" length=0.03000 units=km
New "Line.RBT_UC8886310" phases=4 bus1="17115122TR.1.2.3.4" bus2="267129541.1.2.3.4" linecode="6796775_4" length=0.03000 units=km
New "Line.RBT_UC9125615" phases=2 bus1="3822699138452932FL.2.4" bus2="217187750.2.4" linecode="6796774_2" length=0.02040 units=km
New "Line.RBT_UC9215536" phases=4 bus1="3808401538471181.1.2.3.4" bus2="206751320.1.2.3.4" linecode="6796775_4" length=0.03000 units=km
New "Line.RBT_UC9272755" phases=2 bus1="17115122TR.3.4" bus2="267195814.3.4" linecode="6771582_2" length=0.03000 units=km
New "Line.RBT_UC9308369" phases=2 bus1="17115122TR.3.4" bus2="267196126.3.4" linecode="6771582_2" length=0.03000 units=km
New "Line.RBT_UC9325735" phases=4 bus1="17115122TR.1.2.3.4" bus2="267196438.1.2.3.4" linecode="6796775_4" length=0.00600 units=km
New "Line.RBT_UC9342960" phases=4 bus1="17115122TR.1.2.3.4" bus2="267196750.1.2.3.4" linecode="6796775_4" length=0.00600 units=km
New "Line.RBT_UC9351808" phases=2 bus1="3822705538452920.2.4" bus2="267197374.2.4" linecode="6771582_2" length=0.03000 units=km
New "Line.RBT_UC942532" phases=2 bus1="17115122TR.3.4" bus2="282666117.3.4" linecode="6771582_2" length=0.03000 units=km
New "Line.RBT_UC942534" phases=2 bus1="17115122TR.3.4" bus2="282666741.3.4" linecode="6771582_2" length=0.03000 units=km
New "Line.RBT_UC942536" phases=2 bus1="17115122TR.3.4" bus2="282667053.3.4" linecode="6771582_2" length=0.03000 units=km
New "Line.RBT_UC942540" phases=2 bus1="17115122TR.3.4" bus2="282667677.3.4" linecode="6771582_2" length=0.03000 units=km
New "Line.RBT_UC942545" phases=2 bus1="17115122TR.3.4" bus2="282668613.3.4" linecode="6771582_2" length=0.03000 units=km
New "Line.RBT_UC942550" phases=2 bus1="17115122TR.3.4" bus2="282669237.3.4" linecode="6771582_2" length=0.03000 units=km
New "Line.RBT_UC942552" phases=2 bus1="17115122TR.3.4" bus2="282669549.3.4" linecode="6771582_2" length=0.03000 units=km
New "Line.RBT_UC942555" phases=2 bus1="17115122TR.3.4" bus2="282669861.3.4" linecode="6771582_2" length=0.03000 units=km
New "Line.RBT_UC942560" phases=2 bus1="17115122TR.3.4" bus2="282670797.3.4" linecode="6771582_2" length=0.03000 units=km
New "Line.RBT_UC942562" phases=2 bus1="17115122TR.3.4" bus2="282671421.3.4" linecode="6771582_2" length=0.03000 units=km
New "Line.RBT_UC942573" phases=2 bus1="17115122TR.3.4" bus2="267197701.3.4" linecode="6771582_2" length=0.03000 units=km
New "Line.RBT_UC942576" phases=2 bus1="17115122TR.3.4" bus2="267198013.3.4" linecode="6771582_2" length=0.03000 units=km
New "Line.RBT_UC942580" phases=2 bus1="17115122TR.3.4" bus2="267793362.3.4" linecode="6771582_2" length=0.03000 units=km
New "Line.RBT_UC942582" phases=2 bus1="17115122TR.3.4" bus2="267793674.3.4" linecode="6771582_2" length=0.03000 units=km
New "Line.RBT_UC942584" phases=2 bus1="17115122TR.3.4" bus2="267794298.3.4" linecode="6771582_2" length=0.03000 units=km
New "Line.RBT_UC942589" phases=2 bus1="17115122TR.3.4" bus2="267795234.3.4" linecode="6771582_2" length=0.03000 units=km
New "Line.RBT_UC942596" phases=2 bus1="17115122TR.3.4" bus2="268274387.3.4" linecode="6771582_2" length=0.03000 units=km
New "Line.RBT_UC942602" phases=4 bus1="17115122TR.1.2.3.4" bus2="281210810.1.2.3.4" linecode="6796775_4" length=0.00600 units=km
New "Line.RBT_UC942604" phases=2 bus1="17115122TR.3.4" bus2="268275323.3.4" linecode="6771582_2" length=0.03000 units=km
New "Line.RBT_UC942614" phases=2 bus1="17115122TR.3.4" bus2="268275947.3.4" linecode="6771582_2" length=0.03000 units=km
New "Line.RBT_UC942615" phases=2 bus1="17115122TR.3.4" bus2="270507163.3.4" linecode="6771582_2" length=0.03000 units=km
New "Line.RBT_UC942619" phases=2 bus1="17115122TR.3.4" bus2="270507787.3.4" linecode="6771582_2" length=0.03000 units=km
New "Line.RBT_UC942622" phases=4 bus1="17115122TR.1.2.3.4" bus2="270508411.1.2.3.4" linecode="6796775_4" length=0.00600 units=km
New "Line.RBT_UC942623" phases=2 bus1="17115122TR.3.4" bus2="270508723.3.4" linecode="6771582_2" length=0.03000 units=km
New "Line.RBT_UC942641" phases=2 bus1="17115122TR.3.4" bus2="270514875.3.4" linecode="6771582_2" length=0.03000 units=km
New "Line.RBT_UC942648" phases=2 bus1="17115122TR.3.4" bus2="282672357.3.4" linecode="6771582_2" length=0.03000 units=km
New "Line.RBT_UC942670" phases=2 bus1="17115122TR.3.4" bus2="282672981.3.4" linecode="6771582_2" length=0.03000 units=km
New "Line.RBT_UC948772" phases=2 bus1="17115122TR.3.4" bus2="282673293.3.4" linecode="6771582_2" length=0.03000 units=km
New "Line.RBT_UC948777" phases=2 bus1="17115122TR.3.4" bus2="282673917.3.4" linecode="6771582_2" length=0.03000 units=km
New "Line.RBT_UC948778" phases=2 bus1="17115122TR.3.4" bus2="282674229.3.4" linecode="6771582_2" length=0.03000 units=km
New "Line.RBT_UC948783" phases=2 bus1="17115122TR.3.4" bus2="282674853.3.4" linecode="6771582_2" length=0.03000 units=km
New "Line.RBT_UC948796" phases=2 bus1="17115122TR.3.4" bus2="282675477.3.4" linecode="6771582_2" length=0.03000 units=km
New "Line.RBT_UC948805" phases=2 bus1="17115122TR.3.4" bus2="282676101.3.4" linecode="6771582_2" length=0.03000 units=km
New "Line.RBT_UC948806" phases=2 bus1="17115122TR.3.4" bus2="282676413.3.4" linecode="6771582_2" length=0.03000 units=km
New "Line.RBT_UC948813" phases=2 bus1="17115122TR.3.4" bus2="282677349.3.4" linecode="6771582_2" length=0.03000 units=km
New "Line.RBT_UC948822" phases=2 bus1="17115122TR.3.4" bus2="282677661.3.4" linecode="6771582_2" length=0.03000 units=km
New "Line.RBT_UC948847" phases=2 bus1="17115122TR.3.4" bus2="282678597.3.4" linecode="6771582_2" length=0.03000 units=km
New "Line.RBT_UC948856" phases=2 bus1="17115122TR.3.4" bus2="282679221.3.4" linecode="6771582_2" length=0.03000 units=km
New "Line.RBT_UC948859" phases=4 bus1="17115122TR.1.2.3.4" bus2="282679533.1.2.3.4" linecode="6796775_4" length=0.00600 units=km
New "Line.RBT_UC948865" phases=2 bus1="17115122TR.3.4" bus2="282680157.3.4" linecode="6771582_2" length=0.03000 units=km
New "Line.RBT_UC948866" phases=2 bus1="17115122TR.3.4" bus2="282680469.3.4" linecode="6771582_2" length=0.03000 units=km
New "Line.RBT_UC948872" phases=2 bus1="17115122TR.3.4" bus2="282680781.3.4" linecode="6771582_2" length=0.03000 units=km
New "Line.RBT_UC948886" phases=2 bus1="17115122TR.3.4" bus2="282681717.3.4" linecode="6771582_2" length=0.03000 units=km
New "Line.RBT_UC948891" phases=2 bus1="17115122TR.3.4" bus2="282682029.3.4" linecode="6771582_2" length=0.03000 units=km
New "Line.RBT_UC948892" phases=2 bus1="17115122TR.3.4" bus2="282682341.3.4" linecode="6771582_2" length=0.03000 units=km
New "Line.RBT_UC948893" phases=2 bus1="17115122TR.3.4" bus2="282682653.3.4" linecode="6771582_2" length=0.03000 units=km
New "Line.RBT_UC948901" phases=2 bus1="17115122TR.3.4" bus2="282683901.3.4" linecode="6771582_2" length=0.03000 units=km
New "Line.RBT_UC948907" phases=2 bus1="17115122TR.3.4" bus2="270515499.3.4" linecode="6771582_2" length=0.03000 units=km
New "Line.RBT_UC948908" phases=2 bus1="17115122TR.3.4" bus2="282684213.3.4" linecode="6771582_2" length=0.03000 units=km
New "Line.RBT_UC948914" phases=2 bus1="17115122TR.3.4" bus2="282684837.3.4" linecode="6771582_2" length=0.03000 units=km
New "Line.RBT_UC948920" phases=2 bus1="17115122TR.3.4" bus2="270516123.3.4" linecode="6771582_2" length=0.03000 units=km
New "Line.RBT_UC948921" phases=2 bus1="17115122TR.3.4" bus2="270516435.3.4" linecode="6771582_2" length=0.03000 units=km
New "Line.RBT_UC948923" phases=2 bus1="17115122TR.3.4" bus2="270517059.3.4" linecode="6771582_2" length=0.03000 units=km
New "Line.RBT_UC9582954" phases=4 bus1="3791888038470482.1.2.3.4" bus2="226859881.1.2.3.4" linecode="6796775_4" length=0.01430 units=km
New "Line.RBT_UC9595568" phases=2 bus1="17115122TR.3.4" bus2="270517683.3.4" linecode="6771582_2" length=0.03000 units=km
New "Line.RBT_UC9619643" phases=2 bus1="17115122TR.3.4" bus2="272836264.3.4" linecode="6771582_2" length=0.03000 units=km
New "Line.RBT_UC9673375" phases=2 bus1="17115122TR.3.4" bus2="272970817.3.4" linecode="6771582_2" length=0.03000 units=km
New "Line.RBT_UC9727381" phases=2 bus1="17115122TR.3.4" bus2="272971441.3.4" linecode="6771582_2" length=0.03000 units=km