New "Line.SBT_10287342" phases=4 bus1="3792546838472691.1.2.3.4" bus2="3792549338472699FL.1.2.3.4" linecode="100031115_3_4" length=0.00102 units=km
New "Line.SBT_10287401" phases=4 bus1="3792494438472129.1.2.3.4" bus2="3792464238472152FL.1.2.3.4" linecode="100031115_3_4" length=0.00408 units=km
New "Line.SBT_10519891" phases=2 bus1="3825797138457009.2.4" bus2="3825796338457014FL.2.4" linecode="100031115_2" length=0.00102 units=km
New "Line.SBT_10519956" phases=2 bus1="3825989838457249.2.4" bus2="3825989338457254FL.2.4" linecode="100031115_2" length=0.00102 units=km
New "Line.SBT_10520021" phases=2 bus1="3826199638457129.2.4" bus2="3826198838457134FL.2.4" linecode="100031115_2" length=0.00102 units=km
New "Line.SBT_10520075" phases=4 bus1="3826422938457203.1.2.3.4" bus2="3826422038457208FL.1.2.3.4" linecode="100031115_3_4" length=0.00102 units=km
New "Line.SBT_10520140" phases=2 bus1="3826647938457186.2.4" bus2="3826664338457176FL.2.4" linecode="100031115_2" length=0.00204 units=km
New "Line.SBT_11139932" phases=2 bus1="3825763338463624.2.4" bus2="3825765938463631FL.2.4" linecode="100031115_2" length=0.00102 units=km
New "Line.SBT_11139968" phases=2 bus1="3825019838461372.2.4" bus2="3824999938461352FL.2.4" linecode="100031115_2" length=0.00306 units=km
New "Line.SBT_11140135" phases=2 bus1="3822909438458774.2.4" bus2="3822889538458754FL.2.4" linecode="100031115_2" length=0.00306 units=km
New "Line.SBT_11140232" phases=2 bus1="3822566338458654.2.4" bus2="3822573238458655FL.2.4" linecode="100031115_2" length=0.00102 units=km
New "Line.SBT_11140330" phases=2 bus1="3818897538456784.2.4" bus2="3818897838456783FL.2.4" linecode="100031115_2" length=0.00102 units=km
New "Line.SBT_11140685" phases=2 bus1="3820387638455334.2.4" bus2="3820367738455314FL.2.4" linecode="100031115_2" length=0.00306 units=km
New "Line.SBT_11140852" phases=2 bus1="3825591838455246.2.4" bus2="3825571938455226FL.2.4" linecode="100031115_2" length=0.00306 units=km
New "Line.SBT_11822148" phases=2 bus1="3805886738461137.2.4" bus2="3805866838461118FL.2.4" linecode="100031115_2" length=0.00306 units=km
New "Line.SBT_11822485" phases=2 bus1="3810712438465530.2.4" bus2="3810718638465520FL.2.4" linecode="100031115_2" length=0.00102 units=km
New "Line.SBT_11823391" phases=2 bus1="3808128038470421.2.4" bus2="3808108138470401FL.2.4" linecode="100031115_2" length=0.00306 units=km
New "Line.SBT_11823488" phases=2 bus1="3810746538470081.2.4" bus2="3810751038470080FL.2.4" linecode="100031115_2" length=0.00102 units=km
New "Line.SBT_11830559" phases=2 bus1="3807970338452797.2.4" bus2="3807971038452803FL.2.4" linecode="100031115_2" length=0.00102 units=km
New "Line.SBT_11831290" phases=2 bus1="3806071738459053.2.4" bus2="3806051838459033FL.2.4" linecode="100031115_2" length=0.00306 units=km
New "Line.SBT_11831952" phases=2 bus1="3809923938458685.2.4" bus2="3809904038458665FL.2.4" linecode="100031115_2" length=0.00306 units=km
New "Line.SBT_11832126" phases=2 bus1="3806409238471820.2.4" bus2="3806409938471826FL.2.4" linecode="100031115_2" length=0.00102 units=km
New "Line.SBT_11832240" phases=2 bus1="3824220538435313.2.4" bus2="3824200238435281.2.4" linecode="100031115_2" length=0.00408 units=km
New "Line.SBT_11832360" phases=2 bus1="3807059838456698.2.4" bus2="3807039938456679FL.2.4" linecode="100031115_2" length=0.00306 units=km
New "Line.SBT_11916353" phases=2 bus1="3823299838464159.2.4" bus2="3823279938464139FL.2.4" linecode="100031115_2" length=0.00306 units=km
New "Line.SBT_11916692" phases=2 bus1="3825084238463144.2.4" bus2="3825088038463141FL.2.4" linecode="100031115_2" length=0.00102 units=km
New "Line.SBT_11917032" phases=4 bus1="3827421938461933.1.2.3.4" bus2="3827423738461940FL.1.2.3.4" linecode="100031115_3_4" length=0.00102 units=km
New "Line.SBT_11918886" phases=2 bus1="3821515338458675.2.4" bus2="3821495438458655FL.2.4" linecode="100031115_2" length=0.00306 units=km
New "Line.SBT_11919049" phases=2 bus1="3820323538461666.2.4" bus2="3820322238461668FL.2.4" linecode="100031115_2" length=0.00102 units=km
New "Line.SBT_11919512" phases=4 bus1="3826320738451159.1.2.3.4" bus2="3826327138451160FL.1.2.3.4" linecode="100031115_3_4" length=0.00102 units=km
New "Line.SBT_11919809" phases=2 bus1="3825217938456898.2.4" bus2="3825217038456903FL.2.4" linecode="100031115_2" length=0.00102 units=km
New "Line.SBT_11920900" phases=2 bus1="3827482338465314.2.4" bus2="3827483438465321FL.2.4" linecode="100031115_2" length=0.00102 units=km
New "Line.SBT_11921020" phases=2 bus1="3827876138466210.2.4" bus2="3827878238466217FL.2.4" linecode="100031115_2" length=0.00102 units=km
New "Line.SBT_11921100" phases=2 bus1="3827750538465866.2.4" bus2="3827730638465846FL.2.4" linecode="100031115_2" length=0.00306 units=km
New "Line.SBT_11921388" phases=4 bus1="3828657538464229.1.2.3.4" bus2="3828637638464209FL.1.2.3.4" linecode="100031115_3_4" length=0.00306 units=km
New "Line.SBT_13066796" phases=4 bus1="3823376838464591.1.2.3.4" bus2="3823356938464571FL.1.2.3.4" linecode="100031115_3_4" length=0.00306 units=km
New "Line.SBT_13066864" phases=2 bus1="3824136838464386.2.4" bus2="3824116938464366FL.2.4" linecode="100031115_2" length=0.00306 units=km
New "Line.SBT_13067114" phases=2 bus1="3828739938465802.2.4" bus2="3828741838465810FL.2.4" linecode="100031115_2" length=0.00102 units=km
New "Line.SBT_13067238" phases=2 bus1="3829279438464701.2.4" bus2="3829259538464681FL.2.4" linecode="100031115_2" length=0.00306 units=km
New "Line.SBT_13067412" phases=2 bus1="3829989038464892.2.4" bus2="3829989238464884FL.2.4" linecode="100031115_2" length=0.00102 units=km
New "Line.SBT_13067587" phases=2 bus1="3830332238464443.2.4" bus2="3830339438464433FL.2.4" linecode="100031115_2" length=0.00102 units=km
New "Line.SBT_13080549" phases=2 bus1="3827541038462137.2.4" bus2="3827541738462136FL.2.4" linecode="100031115_2" length=0.00102 units=km
New "Line.SBT_13080592" phases=2 bus1="3826413338463530.2.4" bus2="3826416038463537FL.2.4" linecode="100031115_2" length=0.00102 units=km
New "Line.SBT_13080789" phases=2 bus1="3826810238463143.2.4" bus2="3826813638463151FL.2.4" linecode="100031115_2" length=0.00102 units=km
New "Line.SBT_13081265" phases=4 bus1="3827216638463205.1.2.3.4" bus2="3827209738463216FL.1.2.3.4" linecode="82920201_4" length=0.00102 units=km
New "Line.SBT_13081751" phases=2 bus1="3827911838462735.2.4" bus2="3827891838462715FL.2.4" linecode="100031115_2" length=0.00306 units=km
New "Line.SBT_13081874" phases=2 bus1="3828160238462088.2.4" bus2="3828131138462075FL.2.4" linecode="100031115_2" length=0.00408 units=km
New "Line.SBT_13082937" phases=4 bus1="3825161438467262.1.2.3.4" bus2="3825161738467268FL.1.2.3.4" linecode="100031115_3_4" length=0.00102 units=km
New "Line.SBT_13102026" phases=4 bus1="3824805938459073.1.2.3.4" bus2="3824807338459080FL.1.2.3.4" linecode="100031115_3_4" length=0.00102 units=km
New "Line.SBT_13115991" phases=2 bus1="3813280438448015.2.4" bus2="3813260538447995FL.2.4" linecode="100031115_2" length=0.00306 units=km
New "Line.SBT_13117570" phases=2 bus1="3821211738452153.2.4" bus2="3821191838452133FL.2.4" linecode="100031115_2" length=0.00306 units=km
New "Line.SBT_13117988" phases=2 bus1="3809681638448786.2.4" bus2="3809688038448787FL.2.4" linecode="100031115_2" length=0.00102 units=km
New "Line.SBT_13118145" phases=2 bus1="3805863138449353.2.4" bus2="3805843238449333FL.2.4" linecode="100031115_2" length=0.00306 units=km
New "Line.SBT_13135108" phases=2 bus1="3829320238464376.2.4" bus2="3829323738464375FL.2.4" linecode="100031115_2" length=0.00102 units=km
New "Line.SBT_13144029" phases=2 bus1="3827844738465597.2.4" bus2="3827824838465577FL.2.4" linecode="100031115_2" length=0.00306 units=km
New "Line.SBT_13144438" phases=2 bus1="3828970538465022.2.4" bus2="3828950638465003FL.2.4" linecode="100031115_2" length=0.00306 units=km
New "Line.SBT_13145534" phases=2 bus1="3829943738466050.2.4" bus2="3829950538466054FL.2.4" linecode="100031115_2" length=0.00102 units=km
New "Line.SBT_13146215" phases=2 bus1="3830361438465103.2.4" bus2="3830367538465103FL.2.4" linecode="100031115_2" length=0.00102 units=km
New "Line.SBT_13146494" phases=4 bus1="3829995038464365.1.2.3.4" bus2="3830046638464308FL.1.2.3.4" linecode="100031115_3_4" length=0.00816 units=km
New "Line.SBT_13147160" phases=2 bus1="3830704138464469.2.4" bus2="3830711038464473FL.2.4" linecode="100031115_2" length=0.00102 units=km
New "Line.SBT_13156852" phases=2 bus1="3828200838466343.2.4" bus2="3828180938466323FL.2.4" linecode="100031115_2" length=0.00306 units=km
New "Line.SBT_13158724" phases=4 bus1="3826407938458045.1.2.3.4" bus2="3826414438458046FL.1.2.3.4" linecode="100031115_3_4" length=0.00102 units=km
New "Line.SBT_13159782" phases=4 bus1="3836310038460514.1.2.3.4" bus2="3836315038460520FL.1.2.3.4" linecode="100031115_3_4" length=0.00102 units=km
New "Line.SBT_13161008" phases=2 bus1="3825141238464908.2.4" bus2="3825121238464888FL.2.4" linecode="100031115_2" length=0.00306 units=km
New "Line.SBT_13169772" phases=4 bus1="3824539538467307.1.2.3.4" bus2="3824542438467325FL.1.2.3.4" linecode="100031115_3_4" length=0.00204 units=km
New "Line.SBT_13170479" phases=4 bus1="3826386538450972.1.2.3.4" bus2="3826393138450973FL.1.2.3.4" linecode="100031115_3_4" length=0.00102 units=km
New "Line.SBT_13171426" phases=2 bus1="3813822238447861.2.4" bus2="3813816238447847FL.2.4" linecode="100031115_2" length=0.00204 units=km
New "Line.SBT_13171895" phases=4 bus1="3825206638458960.1.2.3.4" bus2="3825206938458967FL.1.2.3.4" linecode="100031115_3_4" length=0.00102 units=km
New "Line.SBT_13172213" phases=4 bus1="3825772038459014.1.2.3.4" bus2="3825772938459021FL.1.2.3.4" linecode="100031115_3_4" length=0.00102 units=km
New "Line.SBT_13173125" phases=2 bus1="3829636338466207.2.4" bus2="3829642638466207FL.2.4" linecode="100031115_2" length=0.00102 units=km
New "Line.SBT_13183194" phases=2 bus1="3814581938448592.2.4" bus2="3814562038448573FL.2.4" linecode="100031115_2" length=0.00306 units=km
New "Line.SBT_13184151" phases=2 bus1="3821772838455871.2.4" bus2="3821779738455874FL.2.4" linecode="100031115_2" length=0.00102 units=km
New "Line.SBT_13184357" phases=2 bus1="3829374938461603.2.4" bus2="3829379738461610FL.2.4" linecode="100031115_2" length=0.00102 units=km
New "Line.SBT_13186326" phases=2 bus1="3809490838453021.2.4" bus2="3809496638453037FL.2.4" linecode="100031115_2" length=0.00204 units=km
New "Line.SBT_13195845" phases=4 bus1="3829239438463382.1.2.3.4" bus2="3829242538463380FL.1.2.3.4" linecode="100031115_3_4" length=0.00102 units=km
New "Line.SBT_13196053" phases=2 bus1="3829965738462879.2.4" bus2="3829967538462878FL.2.4" linecode="100031115_2" length=0.00102 units=km
New "Line.SBT_13196169" phases=2 bus1="3833268938461210.2.4" bus2="3833249038461190FL.2.4" linecode="100031115_2" length=0.00306 units=km
New "Line.SBT_13196314" phases=4 bus1="3831497638462600.1.2.3.4" bus2="3831477738462580FL.1.2.3.4" linecode="100031115_3_4" length=0.00306 units=km
New "Line.SBT_13196415" phases=2 bus1="3833438338460497.2.4" bus2="3833418438460478FL.2.4" linecode="100031115_2" length=0.00306 units=km
New "Line.SBT_13196705" phases=2 bus1="3834692038457410.2.4" bus2="3834672138457391FL.2.4" linecode="100031115_2" length=0.00306 units=km
New "Line.SBT_13197181" phases=2 bus1="3820932038457383.2.4" bus2="3820912138457363FL.2.4" linecode="100031115_2" length=0.00306 units=km
New "Line.SBT_13197271" phases=2 bus1="3812430438448594.2.4" bus2="3812410538448575FL.2.4" linecode="100031115_2" length=0.00306 units=km
New "Line.SBT_13197295" phases=2 bus1="3812794738448323.2.4" bus2="3812774838448303FL.2.4" linecode="100031115_2" length=0.00306 units=km
New "Line.SBT_13199600" phases=4 bus1="3815910538447696.1.2.3.4" bus2="3815945138447680FL.1.2.3.4" linecode="100031115_3_4" length=0.00408 units=km
New "Line.SBT_13208429" phases=2 bus1="3815341938447248.2.4" bus2="3815322038447228FL.2.4" linecode="100031115_2" length=0.00306 units=km
New "Line.SBT_14153057" phases=2 bus1="3806580438454998.2.4" bus2="3806560538454978FL.2.4" linecode="100031115_2" length=0.00306 units=km
New "Line.SBT_14153235" phases=4 bus1="3813441538425590.1.2.3.4" bus2="3813411338425613.1.2.3.4" linecode="100031115_3_4" length=0.00408 units=km
New "Line.SBT_14156283" phases=2 bus1="3809836138467728.2.4" bus2="3809816238467708FL.2.4" linecode="100031115_2" length=0.00306 units=km
New "Line.SBT_14161943" phases=2 bus1="3804279238455121.2.4" bus2="3804259338455101FL.2.4" linecode="100031115_2" length=0.00306 units=km
New "Line.SBT_14164856" phases=4 bus1="3805314538443081.1.2.3.4" bus2="3805284338443105.1.2.3.4" linecode="100031115_3_4" length=0.00408 units=km
New "Line.SBT_14171444" phases=2 bus1="3808706838468219.2.4" bus2="3808686938468199FL.2.4" linecode="100031115_2" length=0.00306 units=km
New "Line.SBT_14171468" phases=2 bus1="3808101938469561.2.4" bus2="3808082038469542FL.2.4" linecode="100031115_2" length=0.00306 units=km
New "Line.SBT_14186923" phases=2 bus1="3808395538468608.2.4" bus2="3808375538468588FL.2.4" linecode="100031115_2" length=0.00306 units=km
New "Line.SBT_14196322" phases=2 bus1="3802884438456238.2.4" bus2="3802864538456219FL.2.4" linecode="100031115_2" length=0.00306 units=km
New "Line.SBT_14196573" phases=2 bus1="3806713438458204.2.4" bus2="3806720438458208FL.2.4" linecode="100031115_2" length=0.00102 units=km
New "Line.SBT_14196605" phases=2 bus1="3811523838467187.2.4" bus2="3811522838467192FL.2.4" linecode="100031115_2" length=0.00102 units=km
New "Line.SBT_14197774" phases=2 bus1="3804878338462821.2.4" bus2="3804858438462801FL.2.4" linecode="100031115_2" length=0.00306 units=km
New "Line.SBT_14198216" phases=2 bus1="3809416838464778.2.4" bus2="3809396938464758FL.2.4" linecode="100031115_2" length=0.00306 units=km
New "Line.SBT_14198383" phases=2 bus1="3808597638465440.2.4" bus2="3808577738465420FL.2.4" linecode="100031115_2" length=0.00306 units=km
New "Line.SBT_14209794" phases=2 bus1="3811278738457570.2.4" bus2="3811258838457550FL.2.4" linecode="100031115_2" length=0.00306 units=km
New "Line.SBT_14209825" phases=4 bus1="3811408038457375.1.2.3.4" bus2="3811406738457379FL.1.2.3.4" linecode="100031115_3_4" length=0.00102 units=km
New "Line.SBT_14209850" phases=4 bus1="3812038138456082.1.2.3.4" bus2="3812018838456059FL.1.2.3.4" linecode="100031115_3_4" length=0.00306 units=km
New "Line.SBT_14294267" phases=4 bus1="3791778638472605.1.2.3.4" bus2="3791758738472586FL.1.2.3.4" linecode="100031115_3_4" length=0.00306 units=km
New "Line.SBT_14322444" phases=4 bus1="3793895238472928.1.2.3.4" bus2="3793895738472934FL.1.2.3.4" linecode="100031115_3_4" length=0.00102 units=km
New "Line.SBT_18194846" phases=4 bus1="618567TR.1.2.3.4" bus2="3831631138462131.1.2.3.4" linecode="113458533_4" length=0.00102 units=km
New "Line.SBT_18194852" phases=4 bus1="3831631138462131.1.2.3.4" bus2="3831633138462085FL.1.2.3.4" linecode="100031115_3_4" length=0.00510 units=km
New "Line.SBT_18194858" phases=2 bus1="3831694138461929.2.4" bus2="3831687438461917FL.2.4" linecode="100031115_2" length=0.00204 units=km
New "Line.SBT_18194864" phases=2 bus1="3831477138462058.2.4" bus2="3831483938462070FL.2.4" linecode="100031115_2" length=0.00102 units=km
New "Line.SBT_18194876" phases=2 bus1="3830819838462426.2.4" bus2="3830826338462437FL.2.4" linecode="100031115_2" length=0.00102 units=km
New "Line.SBT_18194888" phases=2 bus1="3830584538462068FL.2.4" bus2="3830598238462069.2.4" linecode="103689547_2" length=0.00204 units=km
New "Line.SBT_18194900" phases=4 bus1="3830771738461946.1.2.3.4" bus2="3830764838461935FL.1.2.3.4" linecode="100031115_3_4" length=0.00102 units=km
New "Line.SBT_18194912" phases=2 bus1="3831481238461550.2.4" bus2="3831474538461538FL.2.4" linecode="100031115_2" length=0.00102 units=km
New "Line.SBT_18194918" phases=2 bus1="3831767238461387.2.4" bus2="3831760638461375FL.2.4" linecode="100031115_2" length=0.00204 units=km
New "Line.SBT_18194924" phases=2 bus1="3831999938461259.2.4" bus2="3831993238461247FL.2.4" linecode="100031115_2" length=0.00204 units=km
New "Line.SBT_18194930" phases=2 bus1="3832228638461129.2.4" bus2="3832221938461117FL.2.4" linecode="100031115_2" length=0.00204 units=km
New "Line.SBT_18194936" phases=2 bus1="3830588738462551.2.4" bus2="3830595038462563FL.2.4" linecode="100031115_2" length=0.00102 units=km
New "Line.SBT_18194942" phases=4 bus1="3831979338461770.1.2.3.4" bus2="3831972538461758FL.1.2.3.4" linecode="100031115_3_4" length=0.00204 units=km
New "Line.SBT_18194948" phases=2 bus1="3832262438461606.2.4" bus2="3832255938461594FL.2.4" linecode="100031115_2" length=0.00102 units=km
New "Line.SBT_18194954" phases=2 bus1="3831319838462308.2.4" bus2="3831326538462320FL.2.4" linecode="100031115_2" length=0.00204 units=km
New "Line.SBT_18194960" phases=2 bus1="3831043038462466.2.4" bus2="3831049738462477FL.2.4" linecode="100031115_2" length=0.00204 units=km
New "Line.SBT_18194966" phases=2 bus1="3830768438462620.2.4" bus2="3830775438462632FL.2.4" linecode="100031115_2" length=0.00204 units=km
New "Line.SBT_18194972" phases=2 bus1="3830481538462793.2.4" bus2="3830488838462804FL.2.4" linecode="100031115_2" length=0.00204 units=km
New "Line.SBT_18194978" phases=2 bus1="3830214438462965.2.4" bus2="3830220538462977FL.2.4" linecode="100031115_2" length=0.00204 units=km
New "Line.SBT_18194984" phases=2 bus1="3829919538463114.2.4" bus2="3829924238463126FL.2.4" linecode="100031115_2" length=0.00102 units=km
New "Line.SBT_18194990" phases=4 bus1="3831994738461915.1.2.3.4" bus2="3831924138461945FL.1.2.3.4" linecode="100031115_3_4" length=0.00816 units=km
New "Line.SBT_18194996" phases=4 bus1="3832211838461792.1.2.3.4" bus2="3832205238461773FL.1.2.3.4" linecode="100031115_3_4" length=0.00204 units=km
New "Line.SBT_18195002" phases=4 bus1="3832476538461638.1.2.3.4" bus2="3832469838461626FL.1.2.3.4" linecode="100031115_3_4" length=0.00204 units=km
New "Line.SBT_18195008" phases=2 bus1="3832732838461493.2.4" bus2="3832726138461481FL.2.4" linecode="100031115_2" length=0.00204 units=km
New "Line.SBT_18195014" phases=4 bus1="3833025038461328.1.2.3.4" bus2="3833015538461338FL.1.2.3.4" linecode="82920201_4" length=0.00102 units=km
New "Line.SBT_18195020" phases=2 bus1="3833193538461638.2.4" bus2="3833214138461628FL.2.4" linecode="100031115_2" length=0.00306 units=km
New "Line.SBT_18195026" phases=4 bus1="3832770038461079.1.2.3.4" bus2="3832760838461089FL.1.2.3.4" linecode="82920201_4" length=0.00204 units=km
New "Line.SBT_18195038" phases=4 bus1="3831994738461915.1.2.3.4" bus2="3832211838461792.1.2.3.4" linecode="100031115_3_4" length=0.02856 units=km
New "Line.SBT_18195044" phases=4 bus1="3832211838461792.1.2.3.4" bus2="3832476538461638.1.2.3.4" linecode="100031115_3_4" length=0.03468 units=km
New "Line.SBT_18195056" phases=4 bus1="3832732838461493.1.2.3.4" bus2="3833025038461328.1.2.3.4" linecode="82920201_4" length=0.03774 units=km
New "Line.SBT_18195062" phases=4 bus1="3833025038461328.1.2.3.4" bus2="3832770038461079.1.2.3.4" linecode="82920201_4" length=0.03978 units=km
New "Line.SBT_18195068" phases=4 bus1="3832770038461079.1.2.3.4" bus2="3832494338460847.1.2.3.4" linecode="82920201_4" length=0.04080 units=km
New "Line.SBT_18195086" phases=4 bus1="3831979338461770.1.2.3.4" bus2="3832262438461606.1.2.3.4" linecode="100031115_3_4" length=0.03672 units=km
New "Line.SBT_18195092" phases=2 bus1="3832480238461472.2.4" bus2="3832482438461471FL.2.4" linecode="100031115_2" length=0.00102 units=km
New "Line.SBT_18195098" phases=4 bus1="3831694138461929.1.2.3.4" bus2="3831477138462058.1.2.3.4" linecode="100031115_3_4" length=0.02856 units=km
New "Line.SBT_18195104" phases=4 bus1="3831477138462058.1.2.3.4" bus2="3831135538462253.1.2.3.4" linecode="100031115_3_4" length=0.04488 units=km
New "Line.SBT_18195110" phases=4 bus1="3831135538462253.1.2.3.4" bus2="3830819838462426.1.2.3.4" linecode="100031115_3_4" length=0.04080 units=km
New "Line.SBT_18195116" phases=4 bus1="3830704338462488.1.2.3.4" bus2="3830588738462551.1.2.3.4" linecode="100031115_3_4" length=0.01530 units=km
New "Line.SBT_18195140" phases=4 bus1="3830598238462069.1.2.3.4" bus2="3830568438461977.1.2.3.4" linecode="82920201_4" length=0.01122 units=km
New "Line.SBT_18195146" phases=4 bus1="3830771738461946.1.2.3.4" bus2="3830568438461977.1.2.3.4" linecode="82920201_4" length=0.02346 units=km
New "Line.SBT_18195152" phases=4 bus1="3831011738461810.1.2.3.4" bus2="3830771738461946.1.2.3.4" linecode="113458533_4" length=0.03162 units=km
New "Line.SBT_18195158" phases=4 bus1="3831481238461550.1.2.3.4" bus2="3831191838461703.1.2.3.4" linecode="113458533_4" length=0.03672 units=km
New "Line.SBT_18195170" phases=4 bus1="3831767238461387.1.2.3.4" bus2="3831999938461259.1.2.3.4" linecode="100031115_3_4" length=0.02958 units=km
New "Line.SBT_18195176" phases=4 bus1="3831999938461259.1.2.3.4" bus2="3832228638461129.1.2.3.4" linecode="100031115_3_4" length=0.02958 units=km
New "Line.SBT_18195182" phases=2 bus1="3832429638461001.2.4" bus2="3832431638461000FL.2.4" linecode="100031115_2" length=0.00102 units=km
New "Line.SBT_18195188" phases=4 bus1="3831631138462131.1.2.3.4" bus2="3831319838462308.1.2.3.4" linecode="100031115_3_4" length=0.04080 units=km
New "Line.SBT_18195194" phases=4 bus1="3831319838462308.1.2.3.4" bus2="3831043038462466.1.2.3.4" linecode="82920201_4" length=0.03570 units=km
New "Line.SBT_18195200" phases=4 bus1="3831043038462466.1.2.3.4" bus2="3830768438462620.1.2.3.4" linecode="100031115_3_4" length=0.03570 units=km
New "Line.SBT_18195206" phases=4 bus1="3830768438462620.1.2.3.4" bus2="3830481538462793.1.2.3.4" linecode="100031115_3_4" length=0.03774 units=km
New "Line.SBT_18195212" phases=4 bus1="3830481538462793.1.2.3.4" bus2="3830214438462965.1.2.3.4" linecode="100031115_3_4" length=0.03570 units=km
New "Line.SBT_18195218" phases=4 bus1="3830214438462965.1.2.3.4" bus2="3829919538463114.1.2.3.4" linecode="100031115_3_4" length=0.03774 units=km
New "Line.SBT_18195224" phases=4 bus1="3829919538463114.1.2.3.4" bus2="3829619538463239.1.2.3.4" linecode="100031115_3_4" length=0.03672 units=km
New "Line.SBT_18195230" phases=4 bus1="3833026338461359.1.2.3.4" bus2="3833193538461638.1.2.3.4" linecode="99788595_4" length=0.03672 units=km
New "Line.SBT_18195236" phases=2 bus1="3833747038462532FL.2.4" bus2="3833563438462241.2.4" linecode="103689547_2" length=0.03876 units=km
New "Line.SBT_18195242" phases=4 bus1="618622TR.1.2.3.4" bus2="3832920138460384.1.2.3.4" linecode="100031115_3_4" length=0.00102 units=km
New "Line.SBT_18195254" phases=2 bus1="3832614038460581.2.4" bus2="3832601338460576FL.2.4" linecode="100031115_2" length=0.00204 units=km
New "Line.SBT_18195266" phases=2 bus1="3832446438460214.2.4" bus2="3832434838460221FL.2.4" linecode="100031115_2" length=0.00102 units=km
New "Line.SBT_18195272" phases=2 bus1="3832250038459895.2.4" bus2="3832238138459901FL.2.4" linecode="100031115_2" length=0.00102 units=km
New "Line.SBT_18195278" phases=2 bus1="3832067738459564.2.4" bus2="3832056038459571FL.2.4" linecode="100031115_2" length=0.00204 units=km
New "Line.SBT_18195284" phases=2 bus1="3833244038460221.2.4" bus2="3833231038460218FL.2.4" linecode="100031115_2" length=0.00102 units=km
New "Line.SBT_18195290" phases=2 bus1="3833259038460169.2.4" bus2="3833253538460156FL.2.4" linecode="100031115_2" length=0.00204 units=km
New "Line.SBT_18195296" phases=2 bus1="3833401338460106.2.4" bus2="3833389538460113FL.2.4" linecode="100031115_2" length=0.00102 units=km
New "Line.SBT_18195302" phases=2 bus1="3833242138459823.2.4" bus2="3833230138459829FL.2.4" linecode="100031115_2" length=0.00204 units=km
New "Line.SBT_18195308" phases=2 bus1="3833082138459523.2.4" bus2="3833064038459519FL.2.4" linecode="100031115_2" length=0.00204 units=km
New "Line.SBT_18195314" phases=2 bus1="3832901838459197.2.4" bus2="3832890038459204FL.2.4" linecode="100031115_2" length=0.00204 units=km
New "Line.SBT_18195320" phases=2 bus1="3832737138458908.2.4" bus2="3832726038458916FL.2.4" linecode="100031115_2" length=0.00204 units=km
New "Line.SBT_18195326" phases=4 bus1="3832920138460384.1.2.3.4" bus2="3833244038460221.1.2.3.4" linecode="100031115_3_4" length=0.04080 units=km
New "Line.SBT_18195332" phases=4 bus1="3833244038460221.1.2.3.4" bus2="3833259038460169.1.2.3.4" linecode="100031115_3_4" length=0.00612 units=km
New "Line.SBT_18195338" phases=4 bus1="3833259038460169.1.2.3.4" bus2="3833401338460106.1.2.3.4" linecode="100031115_3_4" length=0.01734 units=km
New "Line.SBT_18195344" phases=4 bus1="3833401338460106.1.2.3.4" bus2="3833242138459823.1.2.3.4" linecode="100031115_3_4" length=0.03672 units=km
New "Line.SBT_18195350" phases=4 bus1="3833242138459823.1.2.3.4" bus2="3833082138459523.1.2.3.4" linecode="100031115_3_4" length=0.03876 units=km
New "Line.SBT_18195356" phases=4 bus1="3833082138459523.1.2.3.4" bus2="3832901838459197.1.2.3.4" linecode="100031115_3_4" length=0.04182 units=km
New "Line.SBT_18195362" phases=4 bus1="3832837038459083.1.2.3.4" bus2="3832737138458908.1.2.3.4" linecode="100031113_4" length=0.02244 units=km
New "Line.SBT_18195368" phases=4 bus1="3832737138458908.1.2.3.4" bus2="3832555538458650FL.1.2.3.4" linecode="100031113_4" length=0.03570 units=km
New "Line.SBT_18195374" phases=4 bus1="3832920138460384.1.2.3.4" bus2="3832614038460581.1.2.3.4" linecode="100031115_3_4" length=0.04080 units=km
New "Line.SBT_18195380" phases=4 bus1="3832614038460581.1.2.3.4" bus2="3832631538460536.1.2.3.4" linecode="100031113_4" length=0.00510 units=km
New "Line.SBT_18195386" phases=4 bus1="3832542238460381.1.2.3.4" bus2="3832446438460214.1.2.3.4" linecode="100031115_3_4" length=0.02142 units=km
New "Line.SBT_18195392" phases=4 bus1="3832446438460214.1.2.3.4" bus2="3832250038459895.1.2.3.4" linecode="100031115_3_4" length=0.04284 units=km
New "Line.SBT_18195398" phases=4 bus1="3832250038459895.1.2.3.4" bus2="3832067738459564.1.2.3.4" linecode="100031115_3_4" length=0.04284 units=km
New "Line.SBT_18195404" phases=4 bus1="3832067738459564.1.2.3.4" bus2="3831868238459248.1.2.3.4" linecode="100031115_3_4" length=0.04182 units=km
New "Line.SBT_18195410" phases=4 bus1="618617TR.1.2.3.4" bus2="3831241738460492.1.2.3.4" linecode="100031115_3_4" length=0.00204 units=km
New "Line.SBT_18195416" phases=4 bus1="3831241738460492.1.2.3.4" bus2="3831248138460504FL.1.2.3.4" linecode="100031115_3_4" length=0.00204 units=km
New "Line.SBT_18195422" phases=4 bus1="3831447838460403.1.2.3.4" bus2="3831441238460391FL.1.2.3.4" linecode="100031115_3_4" length=0.00102 units=km
New "Line.SBT_18195440" phases=4 bus1="3831510038460120.1.2.3.4" bus2="3831501138460130FL.1.2.3.4" linecode="100031115_3_4" length=0.00204 units=km
New "Line.SBT_18195446" phases=4 bus1="3831296938459936.1.2.3.4" bus2="3831288038459946FL.1.2.3.4" linecode="100031115_3_4" length=0.00102 units=km
New "Line.SBT_18195452" phases=4 bus1="3831198738459886.1.2.3.4" bus2="3831205038459898FL.1.2.3.4" linecode="100031115_3_4" length=0.00204 units=km
New "Line.SBT_18195458" phases=4 bus1="3831910938460471.1.2.3.4" bus2="3831920138460462FL.1.2.3.4" linecode="100031115_3_4" length=0.00204 units=km
New "Line.SBT_18195464" phases=4 bus1="3832106138460651.1.2.3.4" bus2="3832114938460640FL.1.2.3.4" linecode="100031115_3_4" length=0.00204 units=km
New "Line.SBT_18195470" phases=4 bus1="3832040438460653.1.2.3.4" bus2="3832047238460665FL.1.2.3.4" linecode="100031115_3_4" length=0.00204 units=km
New "Line.SBT_18195476" phases=4 bus1="3831753638460818.1.2.3.4" bus2="3831760238460830FL.1.2.3.4" linecode="100031115_3_4" length=0.00204 units=km
New "Line.SBT_18195482" phases=4 bus1="3831469438460975.1.2.3.4" bus2="3831476038460987FL.1.2.3.4" linecode="100031115_3_4" length=0.00102 units=km
New "Line.SBT_18195488" phases=4 bus1="3831186938461131.1.2.3.4" bus2="3831194038461143FL.1.2.3.4" linecode="100031115_3_4" length=0.00204 units=km
New "Line.SBT_18195500" phases=4 bus1="3832221038460606.1.2.3.4" bus2="3832212038460616FL.1.2.3.4" linecode="100031115_3_4" length=0.00102 units=km
New "Line.SBT_18195506" phases=4 bus1="3831953638460369.1.2.3.4" bus2="3831944638460379FL.1.2.3.4" linecode="100031115_3_4" length=0.00102 units=km
New "Line.SBT_18195512" phases=4 bus1="3831685338460130.1.2.3.4" bus2="3831676838460141FL.1.2.3.4" linecode="100031115_3_4" length=0.00204 units=km
New "Line.SBT_18195518" phases=4 bus1="3831402138459903.1.2.3.4" bus2="3831392838459913FL.1.2.3.4" linecode="100031115_3_4" length=0.00102 units=km
New "Line.SBT_18195524" phases=4 bus1="3830978638460663.1.2.3.4" bus2="3830986038460674FL.1.2.3.4" linecode="100031115_3_4" length=0.00204 units=km
New "Line.SBT_18195530" phases=4 bus1="3830823838460611.1.2.3.4" bus2="3830811938460618FL.1.2.3.4" linecode="100031115_3_4" length=0.00204 units=km
New "Line.SBT_18195536" phases=4 bus1="3830707938460406.1.2.3.4" bus2="3830702638460393FL.1.2.3.4" linecode="100031115_3_4" length=0.00204 units=km
New "Line.SBT_18195542" phases=4 bus1="3830844438460751.1.2.3.4" bus2="3830850838460763FL.1.2.3.4" linecode="100031115_3_4" length=0.00204 units=km
New "Line.SBT_18195548" phases=4 bus1="3830423638460975.1.2.3.4" bus2="3830430138460987FL.1.2.3.4" linecode="100031115_3_4" length=0.00204 units=km
New "Line.SBT_18195554" phases=4 bus1="3830343738460747.1.2.3.4" bus2="3830331638460753FL.1.2.3.4" linecode="100031115_3_4" length=0.00204 units=km
New "Line.SBT_18195560" phases=4 bus1="3830110638461144.1.2.3.4" bus2="3830117238461156FL.1.2.3.4" linecode="100031115_3_4" length=0.00204 units=km
New "Line.SBT_18195566" phases=4 bus1="3830033138461039.1.2.3.4" bus2="3830021238461045FL.1.2.3.4" linecode="100031115_3_4" length=0.00102 units=km
New "Line.SBT_18195572" phases=4 bus1="3830102838461185.1.2.3.4" bus2="3830114638461178FL.1.2.3.4" linecode="100031115_3_4" length=0.00102 units=km
New "Line.SBT_18195578" phases=4 bus1="3830251038461449.1.2.3.4" bus2="3830262938461442FL.1.2.3.4" linecode="100031115_3_4" length=0.00102 units=km
New "Line.SBT_18195584" phases=4 bus1="3830347838461621.1.2.3.4" bus2="3830359738461615FL.1.2.3.4" linecode="100031115_3_4" length=0.00204 units=km